version 2
run General-0-20230509-17:58:57-10903
attr configname General
attr datetime 20230509-17:58:57
attr experiment General
attr inifile omnetpp.ini
attr iterationvars ""
attr iterationvarsf ""
attr measurement ""
attr network src.Network
attr processid 10903
attr repetition 0
attr replication #0
attr resultdir results
attr runnumber 0
attr seedset 0
param **.wlan[*].radio.typename "\"UnitDiskRadio\""
param **.wlan[*].mac.typename "\"TDMAMac\""
param **.mac.slotDuration 50ms
param *.host*.wlan[*].radio.transmitter.communicationRange 120m
param **.wlan[*].radio.displayCommunicationRange true
param **.radio.transmitter.bitrate "19200 bps"
param *.host1.numApps 1
param *.host1.app[0].typename "\"UdpBasicApp\""
param *.host1.app[0].destAddresses "\"255.255.255.255\""
param *.host1.app[0].destPort 1000
param *.host1.app[0].sendInterval 20ms
param *.host1.app[0].startTime exponential(12ms)
param *.host1.app[0].messageLength 10Byte
param *.host2.numApps 1
param *.host2.app[0].typename "\"UdpBasicApp\""
param *.host2.app[0].destAddresses "\"255.255.255.255\""
param *.host2.app[0].destPort 1000
param *.host2.app[0].sendInterval 10ms
param *.host2.app[0].startTime exponential(12ms)
param *.host2.app[0].messageLength 10Byte
param *.host3.numApps 1
param *.host3.app[0].typename "\"UdpSink\""
param *.host3.app[0].localPort 1000

vector 0 Network.host1.wlan[0].radio radioMode:vector ETV
attr interpolationmode sample-hold
attr source radioModeChanged
attr title "Radio mode, vector"
vector 1 Network.host2.wlan[0].radio radioMode:vector ETV
attr interpolationmode sample-hold
attr source radioModeChanged
attr title "Radio mode, vector"
vector 2 Network.host3.wlan[0].radio radioMode:vector ETV
attr interpolationmode sample-hold
attr source radioModeChanged
attr title "Radio mode, vector"
vector 3 Network.host4.wlan[0].radio radioMode:vector ETV
attr interpolationmode sample-hold
attr source radioModeChanged
attr title "Radio mode, vector"
vector 4 Network.host5.wlan[0].radio radioMode:vector ETV
attr interpolationmode sample-hold
attr source radioModeChanged
attr title "Radio mode, vector"
vector 5 Network.host1.app[0] packetSent:vector(packetBytes) ETV
attr interpolationmode none
attr source packetSent
attr title "packets sent, vector(packetBytes)"
vector 6 Network.host1.udp packetSent:vector(packetBytes) ETV
attr interpolationmode none
attr source packetSent
attr title "packets sent, vector(packetBytes)"
vector 7 Network.host1.ipv4.ip packetDropNoInterfaceFound:vector(packetBytes) ETV
attr interpolationmode none
attr source packetDropReasonIsNoInterfaceFound(packetDropped)
attr title "packet drop: no interface found, vector(packetBytes)"
vector 8 Network.host2.app[0] packetSent:vector(packetBytes) ETV
attr interpolationmode none
attr source packetSent
attr title "packets sent, vector(packetBytes)"
vector 9 Network.host2.udp packetSent:vector(packetBytes) ETV
attr interpolationmode none
attr source packetSent
attr title "packets sent, vector(packetBytes)"
vector 10 Network.host2.ipv4.ip packetDropNoInterfaceFound:vector(packetBytes) ETV
attr interpolationmode none
attr source packetDropReasonIsNoInterfaceFound(packetDropped)
attr title "packet drop: no interface found, vector(packetBytes)"
0	0	0	0
0	0	0	0
1	0	0	0
1	0	0	0
2	0	0	0
2	0	0	0
3	0	0	0
3	0	0	0
4	0	0	0
4	0	0	0
5	8	0.022315250545	10
5	19	0.042315250545	10
5	28	0.062315250545	10
5	37	0.082315250545	10
5	46	0.102315250545	10
5	55	0.122315250545	10
5	64	0.142315250545	10
5	73	0.162315250545	10
5	82	0.182315250545	10
5	91	0.202315250545	10
5	100	0.222315250545	10
5	109	0.242315250545	10
5	118	0.262315250545	10
5	127	0.282315250545	10
5	136	0.302315250545	10
5	145	0.322315250545	10
5	154	0.342315250545	10
5	163	0.362315250545	10
5	172	0.382315250545	10
5	181	0.402315250545	10
5	190	0.422315250545	10
5	199	0.442315250545	10
5	208	0.462315250545	10
5	217	0.482315250545	10
5	226	0.502315250545	10
5	235	0.522315250545	10
5	244	0.542315250545	10
5	253	0.562315250545	10
5	262	0.582315250545	10
5	271	0.602315250545	10
5	280	0.622315250545	10
5	289	0.642315250545	10
5	298	0.662315250545	10
5	307	0.682315250545	10
5	316	0.702315250545	10
5	325	0.722315250545	10
5	334	0.742315250545	10
5	343	0.762315250545	10
5	352	0.782315250545	10
5	361	0.802315250545	10
5	370	0.822315250545	10
5	379	0.842315250545	10
5	388	0.862315250545	10
5	397	0.882315250545	10
5	406	0.902315250545	10
5	415	0.922315250545	10
5	424	0.942315250545	10
5	433	0.962315250545	10
5	442	0.982315250545	10
5	451	1.002315250545	10
5	460	1.022315250545	10
5	469	1.042315250545	10
5	478	1.062315250545	10
5	487	1.082315250545	10
5	496	1.102315250545	10
5	505	1.122315250545	10
5	514	1.142315250545	10
5	523	1.162315250545	10
5	532	1.182315250545	10
5	541	1.202315250545	10
5	550	1.222315250545	10
5	559	1.242315250545	10
5	568	1.262315250545	10
5	577	1.282315250545	10
5	586	1.302315250545	10
5	595	1.322315250545	10
5	604	1.342315250545	10
5	613	1.362315250545	10
5	622	1.382315250545	10
5	631	1.402315250545	10
5	640	1.422315250545	10
5	649	1.442315250545	10
5	658	1.462315250545	10
5	667	1.482315250545	10
5	676	1.502315250545	10
5	685	1.522315250545	10
5	694	1.542315250545	10
5	703	1.562315250545	10
5	712	1.582315250545	10
5	721	1.602315250545	10
5	730	1.622315250545	10
5	739	1.642315250545	10
5	748	1.662315250545	10
5	757	1.682315250545	10
5	766	1.702315250545	10
5	775	1.722315250545	10
5	784	1.742315250545	10
5	793	1.762315250545	10
5	802	1.782315250545	10
5	811	1.802315250545	10
5	820	1.822315250545	10
5	829	1.842315250545	10
5	838	1.862315250545	10
5	847	1.882315250545	10
5	856	1.902315250545	10
5	865	1.922315250545	10
5	874	1.942315250545	10
5	883	1.962315250545	10
5	892	1.982315250545	10
5	901	2.002315250545	10
5	910	2.022315250545	10
5	919	2.042315250545	10
5	928	2.062315250545	10
5	937	2.082315250545	10
5	946	2.102315250545	10
5	955	2.122315250545	10
5	964	2.142315250545	10
5	973	2.162315250545	10
5	982	2.182315250545	10
5	991	2.202315250545	10
5	1000	2.222315250545	10
5	1009	2.242315250545	10
5	1018	2.262315250545	10
5	1027	2.282315250545	10
5	1036	2.302315250545	10
5	1045	2.322315250545	10
5	1054	2.342315250545	10
5	1063	2.362315250545	10
5	1072	2.382315250545	10
5	1081	2.402315250545	10
5	1090	2.422315250545	10
5	1099	2.442315250545	10
5	1108	2.462315250545	10
5	1117	2.482315250545	10
5	1126	2.502315250545	10
5	1135	2.522315250545	10
5	1144	2.542315250545	10
5	1153	2.562315250545	10
5	1162	2.582315250545	10
5	1171	2.602315250545	10
5	1180	2.622315250545	10
5	1189	2.642315250545	10
5	1198	2.662315250545	10
5	1207	2.682315250545	10
5	1216	2.702315250545	10
5	1225	2.722315250545	10
5	1234	2.742315250545	10
5	1243	2.762315250545	10
5	1252	2.782315250545	10
5	1261	2.802315250545	10
5	1270	2.822315250545	10
5	1279	2.842315250545	10
5	1288	2.862315250545	10
5	1297	2.882315250545	10
5	1306	2.902315250545	10
5	1315	2.922315250545	10
5	1324	2.942315250545	10
5	1333	2.962315250545	10
5	1342	2.982315250545	10
5	1351	3.002315250545	10
5	1360	3.022315250545	10
5	1369	3.042315250545	10
5	1378	3.062315250545	10
5	1387	3.082315250545	10
5	1396	3.102315250545	10
5	1405	3.122315250545	10
5	1414	3.142315250545	10
5	1423	3.162315250545	10
5	1432	3.182315250545	10
5	1441	3.202315250545	10
5	1450	3.222315250545	10
5	1459	3.242315250545	10
5	1468	3.262315250545	10
5	1477	3.282315250545	10
5	1486	3.302315250545	10
5	1495	3.322315250545	10
5	1504	3.342315250545	10
5	1513	3.362315250545	10
5	1522	3.382315250545	10
5	1531	3.402315250545	10
5	1540	3.422315250545	10
5	1549	3.442315250545	10
5	1558	3.462315250545	10
5	1567	3.482315250545	10
5	1576	3.502315250545	10
5	1585	3.522315250545	10
5	1594	3.542315250545	10
5	1603	3.562315250545	10
5	1612	3.582315250545	10
5	1621	3.602315250545	10
5	1630	3.622315250545	10
5	1639	3.642315250545	10
5	1648	3.662315250545	10
5	1657	3.682315250545	10
5	1666	3.702315250545	10
5	1675	3.722315250545	10
5	1684	3.742315250545	10
5	1693	3.762315250545	10
5	1702	3.782315250545	10
5	1711	3.802315250545	10
5	1720	3.822315250545	10
5	1729	3.842315250545	10
5	1738	3.862315250545	10
5	1747	3.882315250545	10
5	1756	3.902315250545	10
5	1765	3.922315250545	10
5	1774	3.942315250545	10
5	1783	3.962315250545	10
5	1792	3.982315250545	10
5	1801	4.002315250545	10
5	1810	4.022315250545	10
5	1819	4.042315250545	10
5	1828	4.062315250545	10
5	1837	4.082315250545	10
5	1846	4.102315250545	10
5	1855	4.122315250545	10
5	1864	4.142315250545	10
5	1873	4.162315250545	10
5	1882	4.182315250545	10
5	1891	4.202315250545	10
5	1900	4.222315250545	10
5	1909	4.242315250545	10
5	1918	4.262315250545	10
5	1927	4.282315250545	10
5	1936	4.302315250545	10
5	1945	4.322315250545	10
5	1954	4.342315250545	10
5	1963	4.362315250545	10
5	1972	4.382315250545	10
5	1981	4.402315250545	10
5	1990	4.422315250545	10
5	1999	4.442315250545	10
5	2008	4.462315250545	10
5	2017	4.482315250545	10
5	2026	4.502315250545	10
5	2035	4.522315250545	10
5	2044	4.542315250545	10
5	2053	4.562315250545	10
5	2062	4.582315250545	10
5	2071	4.602315250545	10
5	2080	4.622315250545	10
5	2089	4.642315250545	10
5	2098	4.662315250545	10
5	2107	4.682315250545	10
5	2116	4.702315250545	10
5	2125	4.722315250545	10
5	2134	4.742315250545	10
5	2143	4.762315250545	10
5	2152	4.782315250545	10
5	2161	4.802315250545	10
5	2170	4.822315250545	10
5	2179	4.842315250545	10
5	2188	4.862315250545	10
5	2197	4.882315250545	10
5	2206	4.902315250545	10
5	2215	4.922315250545	10
5	2224	4.942315250545	10
5	2233	4.962315250545	10
5	2242	4.982315250545	10
5	2251	5.002315250545	10
5	2260	5.022315250545	10
5	2269	5.042315250545	10
5	2278	5.062315250545	10
5	2287	5.082315250545	10
5	2296	5.102315250545	10
5	2305	5.122315250545	10
5	2314	5.142315250545	10
5	2323	5.162315250545	10
5	2332	5.182315250545	10
5	2341	5.202315250545	10
5	2350	5.222315250545	10
5	2359	5.242315250545	10
5	2368	5.262315250545	10
5	2377	5.282315250545	10
5	2386	5.302315250545	10
5	2395	5.322315250545	10
5	2404	5.342315250545	10
5	2413	5.362315250545	10
5	2422	5.382315250545	10
5	2431	5.402315250545	10
5	2440	5.422315250545	10
5	2449	5.442315250545	10
5	2458	5.462315250545	10
5	2467	5.482315250545	10
5	2476	5.502315250545	10
5	2485	5.522315250545	10
5	2494	5.542315250545	10
5	2503	5.562315250545	10
5	2512	5.582315250545	10
5	2521	5.602315250545	10
5	2530	5.622315250545	10
5	2539	5.642315250545	10
5	2548	5.662315250545	10
5	2557	5.682315250545	10
5	2566	5.702315250545	10
5	2575	5.722315250545	10
5	2584	5.742315250545	10
5	2593	5.762315250545	10
5	2602	5.782315250545	10
5	2611	5.802315250545	10
5	2620	5.822315250545	10
5	2629	5.842315250545	10
5	2638	5.862315250545	10
5	2647	5.882315250545	10
5	2656	5.902315250545	10
5	2665	5.922315250545	10
5	2674	5.942315250545	10
5	2683	5.962315250545	10
5	2692	5.982315250545	10
5	2701	6.002315250545	10
5	2710	6.022315250545	10
5	2719	6.042315250545	10
5	2728	6.062315250545	10
5	2737	6.082315250545	10
5	2746	6.102315250545	10
5	2755	6.122315250545	10
5	2764	6.142315250545	10
5	2773	6.162315250545	10
5	2782	6.182315250545	10
5	2791	6.202315250545	10
5	2800	6.222315250545	10
5	2809	6.242315250545	10
5	2818	6.262315250545	10
5	2827	6.282315250545	10
5	2836	6.302315250545	10
5	2845	6.322315250545	10
5	2854	6.342315250545	10
5	2863	6.362315250545	10
5	2872	6.382315250545	10
5	2881	6.402315250545	10
5	2890	6.422315250545	10
5	2899	6.442315250545	10
5	2908	6.462315250545	10
5	2917	6.482315250545	10
5	2926	6.502315250545	10
5	2935	6.522315250545	10
5	2944	6.542315250545	10
5	2953	6.562315250545	10
5	2962	6.582315250545	10
5	2971	6.602315250545	10
5	2980	6.622315250545	10
5	2989	6.642315250545	10
5	2998	6.662315250545	10
5	3007	6.682315250545	10
5	3016	6.702315250545	10
5	3025	6.722315250545	10
5	3034	6.742315250545	10
5	3043	6.762315250545	10
5	3052	6.782315250545	10
5	3061	6.802315250545	10
5	3070	6.822315250545	10
5	3079	6.842315250545	10
5	3088	6.862315250545	10
5	3097	6.882315250545	10
5	3106	6.902315250545	10
5	3115	6.922315250545	10
5	3124	6.942315250545	10
5	3133	6.962315250545	10
5	3142	6.982315250545	10
5	3151	7.002315250545	10
5	3160	7.022315250545	10
5	3169	7.042315250545	10
5	3178	7.062315250545	10
5	3187	7.082315250545	10
5	3196	7.102315250545	10
5	3205	7.122315250545	10
5	3214	7.142315250545	10
5	3223	7.162315250545	10
5	3232	7.182315250545	10
5	3241	7.202315250545	10
5	3250	7.222315250545	10
5	3259	7.242315250545	10
5	3268	7.262315250545	10
5	3277	7.282315250545	10
5	3286	7.302315250545	10
5	3295	7.322315250545	10
5	3304	7.342315250545	10
5	3313	7.362315250545	10
5	3322	7.382315250545	10
5	3331	7.402315250545	10
5	3340	7.422315250545	10
5	3349	7.442315250545	10
5	3358	7.462315250545	10
5	3367	7.482315250545	10
5	3376	7.502315250545	10
5	3385	7.522315250545	10
5	3394	7.542315250545	10
5	3403	7.562315250545	10
5	3412	7.582315250545	10
5	3421	7.602315250545	10
5	3430	7.622315250545	10
5	3439	7.642315250545	10
5	3448	7.662315250545	10
5	3457	7.682315250545	10
5	3466	7.702315250545	10
5	3475	7.722315250545	10
5	3484	7.742315250545	10
5	3493	7.762315250545	10
5	3502	7.782315250545	10
5	3511	7.802315250545	10
5	3520	7.822315250545	10
5	3529	7.842315250545	10
5	3538	7.862315250545	10
5	3547	7.882315250545	10
5	3556	7.902315250545	10
5	3565	7.922315250545	10
5	3574	7.942315250545	10
5	3583	7.962315250545	10
5	3592	7.982315250545	10
5	3601	8.002315250545	10
5	3610	8.022315250545	10
5	3619	8.042315250545	10
5	3628	8.062315250545	10
5	3637	8.082315250545	10
5	3646	8.102315250545	10
5	3655	8.122315250545	10
5	3664	8.142315250545	10
5	3673	8.162315250545	10
5	3682	8.182315250545	10
5	3691	8.202315250545	10
5	3700	8.222315250545	10
5	3709	8.242315250545	10
5	3718	8.262315250545	10
5	3727	8.282315250545	10
5	3736	8.302315250545	10
5	3745	8.322315250545	10
5	3754	8.342315250545	10
5	3763	8.362315250545	10
5	3772	8.382315250545	10
5	3781	8.402315250545	10
5	3790	8.422315250545	10
5	3799	8.442315250545	10
5	3808	8.462315250545	10
5	3817	8.482315250545	10
5	3826	8.502315250545	10
5	3835	8.522315250545	10
5	3844	8.542315250545	10
5	3853	8.562315250545	10
5	3862	8.582315250545	10
5	3871	8.602315250545	10
5	3880	8.622315250545	10
5	3889	8.642315250545	10
5	3898	8.662315250545	10
5	3907	8.682315250545	10
5	3916	8.702315250545	10
5	3925	8.722315250545	10
5	3934	8.742315250545	10
5	3943	8.762315250545	10
5	3952	8.782315250545	10
5	3961	8.802315250545	10
5	3970	8.822315250545	10
5	3979	8.842315250545	10
5	3988	8.862315250545	10
5	3997	8.882315250545	10
5	4006	8.902315250545	10
5	4015	8.922315250545	10
5	4024	8.942315250545	10
5	4033	8.962315250545	10
5	4042	8.982315250545	10
5	4051	9.002315250545	10
5	4060	9.022315250545	10
5	4069	9.042315250545	10
5	4078	9.062315250545	10
5	4087	9.082315250545	10
5	4096	9.102315250545	10
5	4105	9.122315250545	10
5	4114	9.142315250545	10
5	4123	9.162315250545	10
5	4132	9.182315250545	10
5	4141	9.202315250545	10
5	4150	9.222315250545	10
5	4159	9.242315250545	10
5	4168	9.262315250545	10
5	4177	9.282315250545	10
5	4186	9.302315250545	10
5	4195	9.322315250545	10
5	4204	9.342315250545	10
5	4213	9.362315250545	10
5	4222	9.382315250545	10
5	4231	9.402315250545	10
5	4240	9.422315250545	10
5	4249	9.442315250545	10
5	4258	9.462315250545	10
5	4267	9.482315250545	10
5	4276	9.502315250545	10
5	4285	9.522315250545	10
5	4294	9.542315250545	10
5	4303	9.562315250545	10
5	4312	9.582315250545	10
5	4321	9.602315250545	10
5	4330	9.622315250545	10
5	4339	9.642315250545	10
5	4348	9.662315250545	10
5	4357	9.682315250545	10
5	4366	9.702315250545	10
5	4375	9.722315250545	10
5	4384	9.742315250545	10
5	4393	9.762315250545	10
5	4402	9.782315250545	10
5	4411	9.802315250545	10
5	4420	9.822315250545	10
5	4429	9.842315250545	10
5	4438	9.862315250545	10
5	4447	9.882315250545	10
5	4456	9.902315250545	10
5	4465	9.922315250545	10
5	4474	9.942315250545	10
5	4483	9.962315250545	10
5	4492	9.982315250545	10
5	4501	10.002315250545	10
5	4510	10.022315250545	10
5	4519	10.042315250545	10
5	4528	10.062315250545	10
5	4537	10.082315250545	10
5	4546	10.102315250545	10
5	4555	10.122315250545	10
5	4564	10.142315250545	10
5	4573	10.162315250545	10
5	4582	10.182315250545	10
5	4591	10.202315250545	10
5	4600	10.222315250545	10
5	4609	10.242315250545	10
5	4618	10.262315250545	10
5	4627	10.282315250545	10
5	4636	10.302315250545	10
5	4645	10.322315250545	10
5	4654	10.342315250545	10
5	4663	10.362315250545	10
5	4672	10.382315250545	10
5	4681	10.402315250545	10
5	4690	10.422315250545	10
5	4699	10.442315250545	10
5	4708	10.462315250545	10
5	4717	10.482315250545	10
5	4726	10.502315250545	10
5	4735	10.522315250545	10
5	4744	10.542315250545	10
5	4753	10.562315250545	10
5	4762	10.582315250545	10
5	4771	10.602315250545	10
5	4780	10.622315250545	10
5	4789	10.642315250545	10
5	4798	10.662315250545	10
5	4807	10.682315250545	10
5	4816	10.702315250545	10
5	4825	10.722315250545	10
5	4834	10.742315250545	10
5	4843	10.762315250545	10
5	4852	10.782315250545	10
5	4861	10.802315250545	10
5	4870	10.822315250545	10
5	4879	10.842315250545	10
5	4888	10.862315250545	10
5	4897	10.882315250545	10
5	4906	10.902315250545	10
5	4915	10.922315250545	10
5	4924	10.942315250545	10
5	4933	10.962315250545	10
5	4942	10.982315250545	10
5	4951	11.002315250545	10
5	4960	11.022315250545	10
5	4969	11.042315250545	10
5	4978	11.062315250545	10
5	4987	11.082315250545	10
5	4996	11.102315250545	10
5	5005	11.122315250545	10
5	5014	11.142315250545	10
5	5023	11.162315250545	10
5	5032	11.182315250545	10
5	5041	11.202315250545	10
5	5050	11.222315250545	10
5	5059	11.242315250545	10
5	5068	11.262315250545	10
5	5077	11.282315250545	10
5	5086	11.302315250545	10
5	5095	11.322315250545	10
5	5104	11.342315250545	10
5	5113	11.362315250545	10
5	5122	11.382315250545	10
5	5131	11.402315250545	10
5	5140	11.422315250545	10
5	5149	11.442315250545	10
5	5158	11.462315250545	10
5	5167	11.482315250545	10
5	5176	11.502315250545	10
5	5185	11.522315250545	10
5	5194	11.542315250545	10
5	5203	11.562315250545	10
5	5212	11.582315250545	10
5	5221	11.602315250545	10
5	5230	11.622315250545	10
5	5239	11.642315250545	10
5	5248	11.662315250545	10
5	5257	11.682315250545	10
5	5266	11.702315250545	10
5	5275	11.722315250545	10
5	5284	11.742315250545	10
5	5293	11.762315250545	10
5	5302	11.782315250545	10
5	5311	11.802315250545	10
5	5320	11.822315250545	10
5	5329	11.842315250545	10
5	5338	11.862315250545	10
5	5347	11.882315250545	10
5	5356	11.902315250545	10
5	5365	11.922315250545	10
5	5374	11.942315250545	10
5	5383	11.962315250545	10
5	5392	11.982315250545	10
5	5401	12.002315250545	10
5	5410	12.022315250545	10
5	5419	12.042315250545	10
5	5428	12.062315250545	10
5	5437	12.082315250545	10
5	5446	12.102315250545	10
5	5455	12.122315250545	10
5	5464	12.142315250545	10
5	5473	12.162315250545	10
5	5482	12.182315250545	10
5	5491	12.202315250545	10
5	5500	12.222315250545	10
5	5509	12.242315250545	10
5	5518	12.262315250545	10
5	5527	12.282315250545	10
5	5536	12.302315250545	10
5	5545	12.322315250545	10
5	5554	12.342315250545	10
5	5563	12.362315250545	10
5	5572	12.382315250545	10
5	5581	12.402315250545	10
5	5590	12.422315250545	10
5	5599	12.442315250545	10
5	5608	12.462315250545	10
5	5617	12.482315250545	10
5	5626	12.502315250545	10
5	5635	12.522315250545	10
5	5644	12.542315250545	10
5	5653	12.562315250545	10
5	5662	12.582315250545	10
5	5671	12.602315250545	10
5	5680	12.622315250545	10
5	5689	12.642315250545	10
5	5698	12.662315250545	10
5	5707	12.682315250545	10
5	5716	12.702315250545	10
5	5725	12.722315250545	10
5	5734	12.742315250545	10
5	5743	12.762315250545	10
5	5752	12.782315250545	10
5	5761	12.802315250545	10
5	5770	12.822315250545	10
5	5779	12.842315250545	10
5	5788	12.862315250545	10
5	5797	12.882315250545	10
5	5806	12.902315250545	10
5	5815	12.922315250545	10
5	5824	12.942315250545	10
5	5833	12.962315250545	10
5	5842	12.982315250545	10
5	5851	13.002315250545	10
5	5860	13.022315250545	10
5	5869	13.042315250545	10
5	5878	13.062315250545	10
5	5887	13.082315250545	10
5	5896	13.102315250545	10
5	5905	13.122315250545	10
5	5914	13.142315250545	10
5	5923	13.162315250545	10
5	5932	13.182315250545	10
5	5941	13.202315250545	10
5	5950	13.222315250545	10
5	5959	13.242315250545	10
5	5968	13.262315250545	10
5	5977	13.282315250545	10
5	5986	13.302315250545	10
5	5995	13.322315250545	10
5	6004	13.342315250545	10
5	6013	13.362315250545	10
5	6022	13.382315250545	10
5	6031	13.402315250545	10
5	6040	13.422315250545	10
5	6049	13.442315250545	10
5	6058	13.462315250545	10
5	6067	13.482315250545	10
5	6076	13.502315250545	10
5	6085	13.522315250545	10
5	6094	13.542315250545	10
5	6103	13.562315250545	10
5	6112	13.582315250545	10
5	6121	13.602315250545	10
5	6130	13.622315250545	10
5	6139	13.642315250545	10
5	6148	13.662315250545	10
5	6157	13.682315250545	10
5	6166	13.702315250545	10
5	6175	13.722315250545	10
5	6184	13.742315250545	10
5	6193	13.762315250545	10
5	6202	13.782315250545	10
5	6211	13.802315250545	10
5	6220	13.822315250545	10
5	6229	13.842315250545	10
5	6238	13.862315250545	10
5	6247	13.882315250545	10
5	6256	13.902315250545	10
5	6265	13.922315250545	10
5	6274	13.942315250545	10
5	6283	13.962315250545	10
5	6292	13.982315250545	10
5	6301	14.002315250545	10
5	6310	14.022315250545	10
5	6319	14.042315250545	10
5	6328	14.062315250545	10
5	6337	14.082315250545	10
5	6346	14.102315250545	10
5	6355	14.122315250545	10
5	6364	14.142315250545	10
5	6373	14.162315250545	10
5	6382	14.182315250545	10
5	6391	14.202315250545	10
5	6400	14.222315250545	10
5	6409	14.242315250545	10
5	6418	14.262315250545	10
5	6427	14.282315250545	10
5	6436	14.302315250545	10
5	6445	14.322315250545	10
5	6454	14.342315250545	10
5	6463	14.362315250545	10
5	6472	14.382315250545	10
5	6481	14.402315250545	10
5	6490	14.422315250545	10
5	6499	14.442315250545	10
5	6508	14.462315250545	10
5	6517	14.482315250545	10
5	6526	14.502315250545	10
5	6535	14.522315250545	10
5	6544	14.542315250545	10
5	6553	14.562315250545	10
5	6562	14.582315250545	10
5	6571	14.602315250545	10
5	6580	14.622315250545	10
5	6589	14.642315250545	10
5	6598	14.662315250545	10
5	6607	14.682315250545	10
5	6616	14.702315250545	10
5	6625	14.722315250545	10
5	6634	14.742315250545	10
5	6643	14.762315250545	10
5	6652	14.782315250545	10
5	6661	14.802315250545	10
5	6670	14.822315250545	10
5	6679	14.842315250545	10
5	6688	14.862315250545	10
5	6697	14.882315250545	10
5	6706	14.902315250545	10
5	6715	14.922315250545	10
5	6724	14.942315250545	10
5	6733	14.962315250545	10
5	6742	14.982315250545	10
5	6751	15.002315250545	10
5	6760	15.022315250545	10
5	6769	15.042315250545	10
5	6778	15.062315250545	10
5	6787	15.082315250545	10
5	6796	15.102315250545	10
5	6805	15.122315250545	10
5	6814	15.142315250545	10
5	6823	15.162315250545	10
5	6832	15.182315250545	10
5	6841	15.202315250545	10
5	6850	15.222315250545	10
5	6859	15.242315250545	10
5	6868	15.262315250545	10
5	6877	15.282315250545	10
5	6886	15.302315250545	10
5	6895	15.322315250545	10
5	6904	15.342315250545	10
5	6913	15.362315250545	10
5	6922	15.382315250545	10
5	6931	15.402315250545	10
5	6940	15.422315250545	10
5	6949	15.442315250545	10
5	6958	15.462315250545	10
5	6967	15.482315250545	10
5	6976	15.502315250545	10
5	6985	15.522315250545	10
5	6994	15.542315250545	10
5	7003	15.562315250545	10
5	7012	15.582315250545	10
5	7021	15.602315250545	10
5	7030	15.622315250545	10
5	7039	15.642315250545	10
5	7048	15.662315250545	10
5	7057	15.682315250545	10
5	7066	15.702315250545	10
5	7075	15.722315250545	10
5	7084	15.742315250545	10
5	7093	15.762315250545	10
5	7102	15.782315250545	10
5	7111	15.802315250545	10
5	7120	15.822315250545	10
5	7129	15.842315250545	10
5	7138	15.862315250545	10
5	7147	15.882315250545	10
5	7156	15.902315250545	10
5	7165	15.922315250545	10
5	7174	15.942315250545	10
5	7183	15.962315250545	10
5	7192	15.982315250545	10
5	7201	16.002315250545	10
5	7210	16.022315250545	10
5	7219	16.042315250545	10
5	7228	16.062315250545	10
5	7237	16.082315250545	10
5	7246	16.102315250545	10
5	7255	16.122315250545	10
5	7264	16.142315250545	10
5	7273	16.162315250545	10
5	7282	16.182315250545	10
5	7291	16.202315250545	10
5	7300	16.222315250545	10
5	7309	16.242315250545	10
5	7318	16.262315250545	10
5	7327	16.282315250545	10
5	7336	16.302315250545	10
5	7345	16.322315250545	10
5	7354	16.342315250545	10
5	7363	16.362315250545	10
5	7372	16.382315250545	10
5	7381	16.402315250545	10
5	7390	16.422315250545	10
5	7399	16.442315250545	10
5	7408	16.462315250545	10
5	7417	16.482315250545	10
5	7426	16.502315250545	10
5	7435	16.522315250545	10
5	7444	16.542315250545	10
5	7453	16.562315250545	10
5	7462	16.582315250545	10
5	7471	16.602315250545	10
5	7480	16.622315250545	10
5	7489	16.642315250545	10
5	7498	16.662315250545	10
5	7507	16.682315250545	10
5	7516	16.702315250545	10
5	7525	16.722315250545	10
5	7534	16.742315250545	10
5	7543	16.762315250545	10
5	7552	16.782315250545	10
5	7561	16.802315250545	10
5	7570	16.822315250545	10
5	7579	16.842315250545	10
5	7588	16.862315250545	10
5	7597	16.882315250545	10
5	7606	16.902315250545	10
5	7615	16.922315250545	10
5	7624	16.942315250545	10
5	7633	16.962315250545	10
5	7642	16.982315250545	10
5	7651	17.002315250545	10
5	7660	17.022315250545	10
5	7669	17.042315250545	10
5	7678	17.062315250545	10
5	7687	17.082315250545	10
5	7696	17.102315250545	10
5	7705	17.122315250545	10
5	7714	17.142315250545	10
5	7723	17.162315250545	10
5	7732	17.182315250545	10
5	7741	17.202315250545	10
5	7750	17.222315250545	10
5	7759	17.242315250545	10
5	7768	17.262315250545	10
5	7777	17.282315250545	10
5	7786	17.302315250545	10
5	7795	17.322315250545	10
5	7804	17.342315250545	10
5	7813	17.362315250545	10
5	7822	17.382315250545	10
5	7831	17.402315250545	10
5	7840	17.422315250545	10
5	7849	17.442315250545	10
5	7858	17.462315250545	10
5	7867	17.482315250545	10
5	7876	17.502315250545	10
5	7885	17.522315250545	10
5	7894	17.542315250545	10
5	7903	17.562315250545	10
5	7912	17.582315250545	10
5	7921	17.602315250545	10
5	7930	17.622315250545	10
5	7939	17.642315250545	10
5	7948	17.662315250545	10
5	7957	17.682315250545	10
5	7966	17.702315250545	10
5	7975	17.722315250545	10
5	7984	17.742315250545	10
5	7993	17.762315250545	10
5	8002	17.782315250545	10
5	8011	17.802315250545	10
5	8020	17.822315250545	10
5	8029	17.842315250545	10
5	8038	17.862315250545	10
5	8047	17.882315250545	10
5	8056	17.902315250545	10
5	8065	17.922315250545	10
5	8074	17.942315250545	10
5	8083	17.962315250545	10
5	8092	17.982315250545	10
5	8101	18.002315250545	10
5	8110	18.022315250545	10
5	8119	18.042315250545	10
5	8128	18.062315250545	10
5	8137	18.082315250545	10
5	8146	18.102315250545	10
5	8155	18.122315250545	10
5	8164	18.142315250545	10
5	8173	18.162315250545	10
5	8182	18.182315250545	10
5	8191	18.202315250545	10
5	8200	18.222315250545	10
5	8209	18.242315250545	10
5	8218	18.262315250545	10
5	8227	18.282315250545	10
5	8236	18.302315250545	10
5	8245	18.322315250545	10
5	8254	18.342315250545	10
5	8263	18.362315250545	10
5	8272	18.382315250545	10
5	8281	18.402315250545	10
5	8290	18.422315250545	10
5	8299	18.442315250545	10
5	8308	18.462315250545	10
5	8317	18.482315250545	10
5	8326	18.502315250545	10
5	8335	18.522315250545	10
5	8344	18.542315250545	10
5	8353	18.562315250545	10
5	8362	18.582315250545	10
5	8371	18.602315250545	10
5	8380	18.622315250545	10
5	8389	18.642315250545	10
5	8398	18.662315250545	10
5	8407	18.682315250545	10
5	8416	18.702315250545	10
5	8425	18.722315250545	10
5	8434	18.742315250545	10
5	8443	18.762315250545	10
5	8452	18.782315250545	10
5	8461	18.802315250545	10
5	8470	18.822315250545	10
5	8479	18.842315250545	10
5	8488	18.862315250545	10
5	8497	18.882315250545	10
5	8506	18.902315250545	10
5	8515	18.922315250545	10
5	8524	18.942315250545	10
5	8533	18.962315250545	10
5	8542	18.982315250545	10
5	8551	19.002315250545	10
5	8560	19.022315250545	10
5	8569	19.042315250545	10
5	8578	19.062315250545	10
5	8587	19.082315250545	10
5	8596	19.102315250545	10
5	8605	19.122315250545	10
5	8614	19.142315250545	10
5	8623	19.162315250545	10
5	8632	19.182315250545	10
5	8641	19.202315250545	10
5	8650	19.222315250545	10
5	8659	19.242315250545	10
5	8668	19.262315250545	10
5	8677	19.282315250545	10
5	8686	19.302315250545	10
5	8695	19.322315250545	10
5	8704	19.342315250545	10
5	8713	19.362315250545	10
5	8722	19.382315250545	10
5	8731	19.402315250545	10
5	8740	19.422315250545	10
5	8749	19.442315250545	10
5	8758	19.462315250545	10
5	8767	19.482315250545	10
5	8776	19.502315250545	10
5	8785	19.522315250545	10
5	8794	19.542315250545	10
5	8803	19.562315250545	10
5	8812	19.582315250545	10
5	8821	19.602315250545	10
5	8830	19.622315250545	10
5	8839	19.642315250545	10
5	8848	19.662315250545	10
5	8857	19.682315250545	10
5	8866	19.702315250545	10
5	8875	19.722315250545	10
5	8884	19.742315250545	10
5	8893	19.762315250545	10
5	8902	19.782315250545	10
5	8911	19.802315250545	10
5	8920	19.822315250545	10
5	8929	19.842315250545	10
5	8938	19.862315250545	10
5	8947	19.882315250545	10
5	8956	19.902315250545	10
5	8965	19.922315250545	10
5	8974	19.942315250545	10
5	8983	19.962315250545	10
5	8992	19.982315250545	10
5	9001	20.002315250545	10
5	9010	20.022315250545	10
5	9019	20.042315250545	10
5	9028	20.062315250545	10
5	9037	20.082315250545	10
5	9046	20.102315250545	10
5	9055	20.122315250545	10
5	9064	20.142315250545	10
5	9073	20.162315250545	10
5	9082	20.182315250545	10
5	9091	20.202315250545	10
5	9100	20.222315250545	10
5	9109	20.242315250545	10
5	9118	20.262315250545	10
5	9127	20.282315250545	10
5	9136	20.302315250545	10
5	9145	20.322315250545	10
5	9154	20.342315250545	10
5	9163	20.362315250545	10
5	9172	20.382315250545	10
5	9181	20.402315250545	10
5	9190	20.422315250545	10
5	9199	20.442315250545	10
5	9208	20.462315250545	10
5	9217	20.482315250545	10
5	9226	20.502315250545	10
5	9235	20.522315250545	10
5	9244	20.542315250545	10
5	9253	20.562315250545	10
5	9262	20.582315250545	10
5	9271	20.602315250545	10
5	9280	20.622315250545	10
5	9289	20.642315250545	10
5	9298	20.662315250545	10
5	9307	20.682315250545	10
5	9316	20.702315250545	10
5	9325	20.722315250545	10
5	9334	20.742315250545	10
5	9343	20.762315250545	10
5	9352	20.782315250545	10
5	9361	20.802315250545	10
5	9370	20.822315250545	10
5	9379	20.842315250545	10
5	9388	20.862315250545	10
5	9397	20.882315250545	10
5	9406	20.902315250545	10
5	9415	20.922315250545	10
5	9424	20.942315250545	10
5	9433	20.962315250545	10
5	9442	20.982315250545	10
5	9451	21.002315250545	10
5	9460	21.022315250545	10
5	9469	21.042315250545	10
5	9478	21.062315250545	10
5	9487	21.082315250545	10
5	9496	21.102315250545	10
5	9505	21.122315250545	10
5	9514	21.142315250545	10
5	9523	21.162315250545	10
5	9532	21.182315250545	10
5	9541	21.202315250545	10
5	9550	21.222315250545	10
5	9559	21.242315250545	10
5	9568	21.262315250545	10
5	9577	21.282315250545	10
5	9586	21.302315250545	10
5	9595	21.322315250545	10
5	9604	21.342315250545	10
5	9613	21.362315250545	10
5	9622	21.382315250545	10
5	9631	21.402315250545	10
5	9640	21.422315250545	10
5	9649	21.442315250545	10
5	9658	21.462315250545	10
5	9667	21.482315250545	10
5	9676	21.502315250545	10
5	9685	21.522315250545	10
5	9694	21.542315250545	10
5	9703	21.562315250545	10
5	9712	21.582315250545	10
5	9721	21.602315250545	10
5	9730	21.622315250545	10
5	9739	21.642315250545	10
5	9748	21.662315250545	10
5	9757	21.682315250545	10
5	9766	21.702315250545	10
5	9775	21.722315250545	10
5	9784	21.742315250545	10
5	9793	21.762315250545	10
5	9802	21.782315250545	10
5	9811	21.802315250545	10
5	9820	21.822315250545	10
5	9829	21.842315250545	10
5	9838	21.862315250545	10
5	9847	21.882315250545	10
5	9856	21.902315250545	10
5	9865	21.922315250545	10
5	9874	21.942315250545	10
5	9883	21.962315250545	10
5	9892	21.982315250545	10
5	9901	22.002315250545	10
5	9910	22.022315250545	10
5	9919	22.042315250545	10
5	9928	22.062315250545	10
5	9937	22.082315250545	10
5	9946	22.102315250545	10
5	9955	22.122315250545	10
5	9964	22.142315250545	10
5	9973	22.162315250545	10
5	9982	22.182315250545	10
5	9991	22.202315250545	10
5	10000	22.222315250545	10
5	10009	22.242315250545	10
5	10018	22.262315250545	10
5	10027	22.282315250545	10
5	10036	22.302315250545	10
5	10045	22.322315250545	10
5	10054	22.342315250545	10
5	10063	22.362315250545	10
5	10072	22.382315250545	10
5	10081	22.402315250545	10
5	10090	22.422315250545	10
5	10099	22.442315250545	10
5	10108	22.462315250545	10
5	10117	22.482315250545	10
5	10126	22.502315250545	10
5	10135	22.522315250545	10
5	10144	22.542315250545	10
5	10153	22.562315250545	10
5	10162	22.582315250545	10
5	10171	22.602315250545	10
5	10180	22.622315250545	10
5	10189	22.642315250545	10
5	10198	22.662315250545	10
5	10207	22.682315250545	10
5	10216	22.702315250545	10
5	10225	22.722315250545	10
5	10234	22.742315250545	10
5	10243	22.762315250545	10
5	10252	22.782315250545	10
5	10261	22.802315250545	10
5	10270	22.822315250545	10
5	10279	22.842315250545	10
5	10288	22.862315250545	10
5	10297	22.882315250545	10
5	10306	22.902315250545	10
5	10315	22.922315250545	10
5	10324	22.942315250545	10
5	10333	22.962315250545	10
5	10342	22.982315250545	10
5	10351	23.002315250545	10
5	10360	23.022315250545	10
5	10369	23.042315250545	10
5	10378	23.062315250545	10
5	10387	23.082315250545	10
5	10396	23.102315250545	10
5	10405	23.122315250545	10
5	10414	23.142315250545	10
5	10423	23.162315250545	10
5	10432	23.182315250545	10
5	10441	23.202315250545	10
5	10450	23.222315250545	10
5	10459	23.242315250545	10
5	10468	23.262315250545	10
5	10477	23.282315250545	10
5	10486	23.302315250545	10
5	10495	23.322315250545	10
5	10504	23.342315250545	10
5	10513	23.362315250545	10
5	10522	23.382315250545	10
5	10531	23.402315250545	10
5	10540	23.422315250545	10
5	10549	23.442315250545	10
5	10558	23.462315250545	10
5	10567	23.482315250545	10
5	10576	23.502315250545	10
5	10585	23.522315250545	10
5	10594	23.542315250545	10
5	10603	23.562315250545	10
5	10612	23.582315250545	10
5	10621	23.602315250545	10
5	10630	23.622315250545	10
5	10639	23.642315250545	10
5	10648	23.662315250545	10
5	10657	23.682315250545	10
5	10666	23.702315250545	10
5	10675	23.722315250545	10
5	10684	23.742315250545	10
5	10693	23.762315250545	10
5	10702	23.782315250545	10
5	10711	23.802315250545	10
5	10720	23.822315250545	10
5	10729	23.842315250545	10
5	10738	23.862315250545	10
5	10747	23.882315250545	10
5	10756	23.902315250545	10
5	10765	23.922315250545	10
5	10774	23.942315250545	10
5	10783	23.962315250545	10
5	10792	23.982315250545	10
5	10801	24.002315250545	10
5	10810	24.022315250545	10
5	10819	24.042315250545	10
5	10828	24.062315250545	10
5	10837	24.082315250545	10
5	10846	24.102315250545	10
5	10855	24.122315250545	10
5	10864	24.142315250545	10
5	10873	24.162315250545	10
5	10882	24.182315250545	10
5	10891	24.202315250545	10
5	10900	24.222315250545	10
5	10909	24.242315250545	10
5	10918	24.262315250545	10
5	10927	24.282315250545	10
5	10936	24.302315250545	10
5	10945	24.322315250545	10
5	10954	24.342315250545	10
5	10963	24.362315250545	10
5	10972	24.382315250545	10
5	10981	24.402315250545	10
5	10990	24.422315250545	10
5	10999	24.442315250545	10
5	11008	24.462315250545	10
5	11017	24.482315250545	10
5	11026	24.502315250545	10
5	11035	24.522315250545	10
5	11044	24.542315250545	10
5	11053	24.562315250545	10
5	11062	24.582315250545	10
5	11071	24.602315250545	10
5	11080	24.622315250545	10
5	11089	24.642315250545	10
5	11098	24.662315250545	10
5	11107	24.682315250545	10
5	11116	24.702315250545	10
5	11125	24.722315250545	10
5	11134	24.742315250545	10
5	11143	24.762315250545	10
5	11152	24.782315250545	10
5	11161	24.802315250545	10
5	11170	24.822315250545	10
5	11179	24.842315250545	10
5	11188	24.862315250545	10
5	11197	24.882315250545	10
5	11206	24.902315250545	10
5	11215	24.922315250545	10
5	11224	24.942315250545	10
5	11233	24.962315250545	10
5	11242	24.982315250545	10
5	11251	25.002315250545	10
5	11260	25.022315250545	10
5	11269	25.042315250545	10
5	11278	25.062315250545	10
5	11287	25.082315250545	10
5	11296	25.102315250545	10
5	11305	25.122315250545	10
5	11314	25.142315250545	10
5	11323	25.162315250545	10
5	11332	25.182315250545	10
5	11341	25.202315250545	10
5	11350	25.222315250545	10
5	11359	25.242315250545	10
5	11368	25.262315250545	10
5	11377	25.282315250545	10
5	11386	25.302315250545	10
5	11395	25.322315250545	10
5	11404	25.342315250545	10
5	11413	25.362315250545	10
5	11422	25.382315250545	10
5	11431	25.402315250545	10
5	11440	25.422315250545	10
5	11449	25.442315250545	10
5	11458	25.462315250545	10
5	11467	25.482315250545	10
5	11476	25.502315250545	10
5	11485	25.522315250545	10
5	11494	25.542315250545	10
5	11503	25.562315250545	10
5	11512	25.582315250545	10
5	11521	25.602315250545	10
5	11530	25.622315250545	10
5	11539	25.642315250545	10
5	11548	25.662315250545	10
5	11557	25.682315250545	10
5	11566	25.702315250545	10
5	11575	25.722315250545	10
5	11584	25.742315250545	10
5	11593	25.762315250545	10
5	11602	25.782315250545	10
5	11611	25.802315250545	10
5	11620	25.822315250545	10
5	11629	25.842315250545	10
5	11638	25.862315250545	10
5	11647	25.882315250545	10
5	11656	25.902315250545	10
5	11665	25.922315250545	10
5	11674	25.942315250545	10
5	11683	25.962315250545	10
5	11692	25.982315250545	10
5	11701	26.002315250545	10
5	11710	26.022315250545	10
5	11719	26.042315250545	10
5	11728	26.062315250545	10
5	11737	26.082315250545	10
5	11746	26.102315250545	10
5	11755	26.122315250545	10
5	11764	26.142315250545	10
5	11773	26.162315250545	10
5	11782	26.182315250545	10
5	11791	26.202315250545	10
5	11800	26.222315250545	10
5	11809	26.242315250545	10
5	11818	26.262315250545	10
5	11827	26.282315250545	10
5	11836	26.302315250545	10
5	11845	26.322315250545	10
5	11854	26.342315250545	10
5	11863	26.362315250545	10
5	11872	26.382315250545	10
5	11881	26.402315250545	10
5	11890	26.422315250545	10
5	11899	26.442315250545	10
5	11908	26.462315250545	10
5	11917	26.482315250545	10
5	11926	26.502315250545	10
5	11935	26.522315250545	10
5	11944	26.542315250545	10
5	11953	26.562315250545	10
5	11962	26.582315250545	10
5	11971	26.602315250545	10
5	11980	26.622315250545	10
5	11989	26.642315250545	10
5	11998	26.662315250545	10
5	12007	26.682315250545	10
5	12016	26.702315250545	10
5	12025	26.722315250545	10
5	12034	26.742315250545	10
5	12043	26.762315250545	10
5	12052	26.782315250545	10
5	12061	26.802315250545	10
5	12070	26.822315250545	10
5	12079	26.842315250545	10
5	12088	26.862315250545	10
5	12097	26.882315250545	10
5	12106	26.902315250545	10
5	12115	26.922315250545	10
5	12124	26.942315250545	10
5	12133	26.962315250545	10
5	12142	26.982315250545	10
5	12151	27.002315250545	10
5	12160	27.022315250545	10
5	12169	27.042315250545	10
5	12178	27.062315250545	10
5	12187	27.082315250545	10
5	12196	27.102315250545	10
5	12205	27.122315250545	10
5	12214	27.142315250545	10
5	12223	27.162315250545	10
5	12232	27.182315250545	10
5	12241	27.202315250545	10
5	12250	27.222315250545	10
5	12259	27.242315250545	10
5	12268	27.262315250545	10
5	12277	27.282315250545	10
5	12286	27.302315250545	10
5	12295	27.322315250545	10
5	12304	27.342315250545	10
5	12313	27.362315250545	10
5	12322	27.382315250545	10
5	12331	27.402315250545	10
5	12340	27.422315250545	10
5	12349	27.442315250545	10
5	12358	27.462315250545	10
5	12367	27.482315250545	10
5	12376	27.502315250545	10
5	12385	27.522315250545	10
5	12394	27.542315250545	10
5	12403	27.562315250545	10
5	12412	27.582315250545	10
5	12421	27.602315250545	10
5	12430	27.622315250545	10
5	12439	27.642315250545	10
5	12448	27.662315250545	10
5	12457	27.682315250545	10
5	12466	27.702315250545	10
5	12475	27.722315250545	10
5	12484	27.742315250545	10
5	12493	27.762315250545	10
5	12502	27.782315250545	10
5	12511	27.802315250545	10
5	12520	27.822315250545	10
5	12529	27.842315250545	10
5	12538	27.862315250545	10
5	12547	27.882315250545	10
5	12556	27.902315250545	10
5	12565	27.922315250545	10
5	12574	27.942315250545	10
5	12583	27.962315250545	10
5	12592	27.982315250545	10
5	12601	28.002315250545	10
5	12610	28.022315250545	10
5	12619	28.042315250545	10
5	12628	28.062315250545	10
5	12637	28.082315250545	10
5	12646	28.102315250545	10
5	12655	28.122315250545	10
5	12664	28.142315250545	10
5	12673	28.162315250545	10
5	12682	28.182315250545	10
5	12691	28.202315250545	10
5	12700	28.222315250545	10
5	12709	28.242315250545	10
5	12718	28.262315250545	10
5	12727	28.282315250545	10
5	12736	28.302315250545	10
5	12745	28.322315250545	10
5	12754	28.342315250545	10
5	12763	28.362315250545	10
5	12772	28.382315250545	10
5	12781	28.402315250545	10
5	12790	28.422315250545	10
5	12799	28.442315250545	10
5	12808	28.462315250545	10
5	12817	28.482315250545	10
5	12826	28.502315250545	10
5	12835	28.522315250545	10
5	12844	28.542315250545	10
5	12853	28.562315250545	10
5	12862	28.582315250545	10
5	12871	28.602315250545	10
5	12880	28.622315250545	10
5	12889	28.642315250545	10
5	12898	28.662315250545	10
5	12907	28.682315250545	10
5	12916	28.702315250545	10
5	12925	28.722315250545	10
5	12934	28.742315250545	10
5	12943	28.762315250545	10
5	12952	28.782315250545	10
5	12961	28.802315250545	10
5	12970	28.822315250545	10
5	12979	28.842315250545	10
5	12988	28.862315250545	10
5	12997	28.882315250545	10
5	13006	28.902315250545	10
5	13015	28.922315250545	10
5	13024	28.942315250545	10
5	13033	28.962315250545	10
5	13042	28.982315250545	10
5	13051	29.002315250545	10
5	13060	29.022315250545	10
5	13069	29.042315250545	10
5	13078	29.062315250545	10
5	13087	29.082315250545	10
5	13096	29.102315250545	10
5	13105	29.122315250545	10
5	13114	29.142315250545	10
5	13123	29.162315250545	10
5	13132	29.182315250545	10
5	13141	29.202315250545	10
5	13150	29.222315250545	10
5	13159	29.242315250545	10
5	13168	29.262315250545	10
5	13177	29.282315250545	10
5	13186	29.302315250545	10
5	13195	29.322315250545	10
5	13204	29.342315250545	10
5	13213	29.362315250545	10
5	13222	29.382315250545	10
5	13231	29.402315250545	10
5	13240	29.422315250545	10
5	13249	29.442315250545	10
5	13258	29.462315250545	10
5	13267	29.482315250545	10
5	13276	29.502315250545	10
5	13285	29.522315250545	10
5	13294	29.542315250545	10
5	13303	29.562315250545	10
5	13312	29.582315250545	10
5	13321	29.602315250545	10
5	13330	29.622315250545	10
5	13339	29.642315250545	10
5	13348	29.662315250545	10
5	13357	29.682315250545	10
5	13366	29.702315250545	10
5	13375	29.722315250545	10
5	13384	29.742315250545	10
5	13393	29.762315250545	10
5	13402	29.782315250545	10
5	13411	29.802315250545	10
5	13420	29.822315250545	10
5	13429	29.842315250545	10
5	13438	29.862315250545	10
5	13447	29.882315250545	10
5	13456	29.902315250545	10
5	13465	29.922315250545	10
5	13474	29.942315250545	10
5	13483	29.962315250545	10
5	13492	29.982315250545	10
5	13501	30.002315250545	10
5	13510	30.022315250545	10
5	13519	30.042315250545	10
5	13528	30.062315250545	10
5	13537	30.082315250545	10
5	13546	30.102315250545	10
5	13555	30.122315250545	10
5	13564	30.142315250545	10
5	13573	30.162315250545	10
5	13582	30.182315250545	10
5	13591	30.202315250545	10
5	13600	30.222315250545	10
5	13609	30.242315250545	10
5	13618	30.262315250545	10
5	13627	30.282315250545	10
5	13636	30.302315250545	10
5	13645	30.322315250545	10
5	13654	30.342315250545	10
5	13663	30.362315250545	10
5	13672	30.382315250545	10
5	13681	30.402315250545	10
5	13690	30.422315250545	10
5	13699	30.442315250545	10
5	13708	30.462315250545	10
5	13717	30.482315250545	10
5	13726	30.502315250545	10
5	13735	30.522315250545	10
5	13744	30.542315250545	10
5	13753	30.562315250545	10
5	13762	30.582315250545	10
5	13771	30.602315250545	10
5	13780	30.622315250545	10
5	13789	30.642315250545	10
5	13798	30.662315250545	10
5	13807	30.682315250545	10
5	13816	30.702315250545	10
5	13825	30.722315250545	10
5	13834	30.742315250545	10
5	13843	30.762315250545	10
5	13852	30.782315250545	10
5	13861	30.802315250545	10
5	13870	30.822315250545	10
5	13879	30.842315250545	10
5	13888	30.862315250545	10
5	13897	30.882315250545	10
5	13906	30.902315250545	10
5	13915	30.922315250545	10
5	13924	30.942315250545	10
5	13933	30.962315250545	10
5	13942	30.982315250545	10
5	13951	31.002315250545	10
5	13960	31.022315250545	10
5	13969	31.042315250545	10
5	13978	31.062315250545	10
5	13987	31.082315250545	10
5	13996	31.102315250545	10
5	14005	31.122315250545	10
5	14014	31.142315250545	10
5	14023	31.162315250545	10
5	14032	31.182315250545	10
5	14041	31.202315250545	10
5	14050	31.222315250545	10
5	14059	31.242315250545	10
5	14068	31.262315250545	10
5	14077	31.282315250545	10
5	14086	31.302315250545	10
5	14095	31.322315250545	10
5	14104	31.342315250545	10
5	14113	31.362315250545	10
5	14122	31.382315250545	10
5	14131	31.402315250545	10
5	14140	31.422315250545	10
5	14149	31.442315250545	10
5	14158	31.462315250545	10
5	14167	31.482315250545	10
5	14176	31.502315250545	10
5	14185	31.522315250545	10
5	14194	31.542315250545	10
5	14203	31.562315250545	10
5	14212	31.582315250545	10
5	14221	31.602315250545	10
5	14230	31.622315250545	10
5	14239	31.642315250545	10
5	14248	31.662315250545	10
5	14257	31.682315250545	10
5	14266	31.702315250545	10
5	14275	31.722315250545	10
5	14284	31.742315250545	10
5	14293	31.762315250545	10
5	14302	31.782315250545	10
5	14311	31.802315250545	10
5	14320	31.822315250545	10
5	14329	31.842315250545	10
5	14338	31.862315250545	10
5	14347	31.882315250545	10
5	14356	31.902315250545	10
5	14365	31.922315250545	10
5	14374	31.942315250545	10
5	14383	31.962315250545	10
5	14392	31.982315250545	10
5	14401	32.002315250545	10
5	14410	32.022315250545	10
5	14419	32.042315250545	10
5	14428	32.062315250545	10
5	14437	32.082315250545	10
5	14446	32.102315250545	10
5	14455	32.122315250545	10
5	14464	32.142315250545	10
5	14473	32.162315250545	10
5	14482	32.182315250545	10
5	14491	32.202315250545	10
5	14500	32.222315250545	10
5	14509	32.242315250545	10
5	14518	32.262315250545	10
5	14527	32.282315250545	10
5	14536	32.302315250545	10
5	14545	32.322315250545	10
5	14554	32.342315250545	10
5	14563	32.362315250545	10
5	14572	32.382315250545	10
5	14581	32.402315250545	10
5	14590	32.422315250545	10
5	14599	32.442315250545	10
5	14608	32.462315250545	10
5	14617	32.482315250545	10
5	14626	32.502315250545	10
5	14635	32.522315250545	10
5	14644	32.542315250545	10
5	14653	32.562315250545	10
5	14662	32.582315250545	10
5	14671	32.602315250545	10
5	14680	32.622315250545	10
5	14689	32.642315250545	10
5	14698	32.662315250545	10
5	14707	32.682315250545	10
5	14716	32.702315250545	10
5	14725	32.722315250545	10
5	14734	32.742315250545	10
5	14743	32.762315250545	10
5	14752	32.782315250545	10
5	14761	32.802315250545	10
5	14770	32.822315250545	10
5	14779	32.842315250545	10
5	14788	32.862315250545	10
5	14797	32.882315250545	10
5	14806	32.902315250545	10
5	14815	32.922315250545	10
5	14824	32.942315250545	10
5	14833	32.962315250545	10
5	14842	32.982315250545	10
5	14851	33.002315250545	10
5	14860	33.022315250545	10
5	14869	33.042315250545	10
5	14878	33.062315250545	10
5	14887	33.082315250545	10
5	14896	33.102315250545	10
5	14905	33.122315250545	10
5	14914	33.142315250545	10
5	14923	33.162315250545	10
5	14932	33.182315250545	10
5	14941	33.202315250545	10
5	14950	33.222315250545	10
5	14959	33.242315250545	10
5	14968	33.262315250545	10
5	14977	33.282315250545	10
5	14986	33.302315250545	10
5	14995	33.322315250545	10
5	15004	33.342315250545	10
5	15013	33.362315250545	10
5	15022	33.382315250545	10
5	15031	33.402315250545	10
5	15040	33.422315250545	10
5	15049	33.442315250545	10
5	15058	33.462315250545	10
5	15067	33.482315250545	10
5	15076	33.502315250545	10
5	15085	33.522315250545	10
5	15094	33.542315250545	10
5	15103	33.562315250545	10
5	15112	33.582315250545	10
5	15121	33.602315250545	10
5	15130	33.622315250545	10
5	15139	33.642315250545	10
5	15148	33.662315250545	10
5	15157	33.682315250545	10
5	15166	33.702315250545	10
5	15175	33.722315250545	10
5	15184	33.742315250545	10
5	15193	33.762315250545	10
5	15202	33.782315250545	10
5	15211	33.802315250545	10
5	15220	33.822315250545	10
5	15229	33.842315250545	10
5	15238	33.862315250545	10
5	15247	33.882315250545	10
5	15256	33.902315250545	10
5	15265	33.922315250545	10
5	15274	33.942315250545	10
5	15283	33.962315250545	10
5	15292	33.982315250545	10
5	15301	34.002315250545	10
5	15310	34.022315250545	10
5	15319	34.042315250545	10
5	15328	34.062315250545	10
5	15337	34.082315250545	10
5	15346	34.102315250545	10
5	15355	34.122315250545	10
5	15364	34.142315250545	10
5	15373	34.162315250545	10
5	15382	34.182315250545	10
5	15391	34.202315250545	10
5	15400	34.222315250545	10
5	15409	34.242315250545	10
5	15418	34.262315250545	10
5	15427	34.282315250545	10
5	15436	34.302315250545	10
5	15445	34.322315250545	10
5	15454	34.342315250545	10
5	15463	34.362315250545	10
5	15472	34.382315250545	10
5	15481	34.402315250545	10
5	15490	34.422315250545	10
5	15499	34.442315250545	10
5	15508	34.462315250545	10
5	15517	34.482315250545	10
5	15526	34.502315250545	10
5	15535	34.522315250545	10
5	15544	34.542315250545	10
5	15553	34.562315250545	10
5	15562	34.582315250545	10
5	15571	34.602315250545	10
5	15580	34.622315250545	10
5	15589	34.642315250545	10
5	15598	34.662315250545	10
5	15607	34.682315250545	10
5	15616	34.702315250545	10
5	15625	34.722315250545	10
5	15634	34.742315250545	10
5	15643	34.762315250545	10
5	15652	34.782315250545	10
5	15661	34.802315250545	10
5	15670	34.822315250545	10
5	15679	34.842315250545	10
5	15688	34.862315250545	10
5	15697	34.882315250545	10
5	15706	34.902315250545	10
5	15715	34.922315250545	10
5	15724	34.942315250545	10
5	15733	34.962315250545	10
5	15742	34.982315250545	10
5	15751	35.002315250545	10
5	15760	35.022315250545	10
5	15769	35.042315250545	10
5	15778	35.062315250545	10
5	15787	35.082315250545	10
5	15796	35.102315250545	10
5	15805	35.122315250545	10
5	15814	35.142315250545	10
5	15823	35.162315250545	10
5	15832	35.182315250545	10
5	15841	35.202315250545	10
5	15850	35.222315250545	10
5	15859	35.242315250545	10
5	15868	35.262315250545	10
5	15877	35.282315250545	10
5	15886	35.302315250545	10
5	15895	35.322315250545	10
5	15904	35.342315250545	10
5	15913	35.362315250545	10
5	15922	35.382315250545	10
5	15931	35.402315250545	10
5	15940	35.422315250545	10
5	15949	35.442315250545	10
5	15958	35.462315250545	10
5	15967	35.482315250545	10
5	15976	35.502315250545	10
5	15985	35.522315250545	10
5	15994	35.542315250545	10
5	16003	35.562315250545	10
5	16012	35.582315250545	10
5	16021	35.602315250545	10
5	16030	35.622315250545	10
5	16039	35.642315250545	10
5	16048	35.662315250545	10
5	16057	35.682315250545	10
5	16066	35.702315250545	10
5	16075	35.722315250545	10
5	16084	35.742315250545	10
5	16093	35.762315250545	10
5	16102	35.782315250545	10
5	16111	35.802315250545	10
5	16120	35.822315250545	10
5	16129	35.842315250545	10
5	16138	35.862315250545	10
5	16147	35.882315250545	10
5	16156	35.902315250545	10
5	16165	35.922315250545	10
5	16174	35.942315250545	10
5	16183	35.962315250545	10
5	16192	35.982315250545	10
5	16201	36.002315250545	10
5	16210	36.022315250545	10
5	16219	36.042315250545	10
5	16228	36.062315250545	10
5	16237	36.082315250545	10
5	16246	36.102315250545	10
5	16255	36.122315250545	10
5	16264	36.142315250545	10
5	16273	36.162315250545	10
5	16282	36.182315250545	10
5	16291	36.202315250545	10
5	16300	36.222315250545	10
5	16309	36.242315250545	10
5	16318	36.262315250545	10
5	16327	36.282315250545	10
5	16336	36.302315250545	10
5	16345	36.322315250545	10
5	16354	36.342315250545	10
5	16363	36.362315250545	10
5	16372	36.382315250545	10
5	16381	36.402315250545	10
5	16390	36.422315250545	10
5	16399	36.442315250545	10
5	16408	36.462315250545	10
5	16417	36.482315250545	10
5	16426	36.502315250545	10
5	16435	36.522315250545	10
5	16444	36.542315250545	10
5	16453	36.562315250545	10
5	16462	36.582315250545	10
5	16471	36.602315250545	10
5	16480	36.622315250545	10
5	16489	36.642315250545	10
5	16498	36.662315250545	10
5	16507	36.682315250545	10
5	16516	36.702315250545	10
5	16525	36.722315250545	10
5	16534	36.742315250545	10
5	16543	36.762315250545	10
5	16552	36.782315250545	10
5	16561	36.802315250545	10
5	16570	36.822315250545	10
5	16579	36.842315250545	10
5	16588	36.862315250545	10
5	16597	36.882315250545	10
5	16606	36.902315250545	10
5	16615	36.922315250545	10
5	16624	36.942315250545	10
5	16633	36.962315250545	10
5	16642	36.982315250545	10
5	16651	37.002315250545	10
5	16660	37.022315250545	10
5	16669	37.042315250545	10
5	16678	37.062315250545	10
5	16687	37.082315250545	10
5	16696	37.102315250545	10
5	16705	37.122315250545	10
5	16714	37.142315250545	10
5	16723	37.162315250545	10
5	16732	37.182315250545	10
5	16741	37.202315250545	10
5	16750	37.222315250545	10
5	16759	37.242315250545	10
5	16768	37.262315250545	10
5	16777	37.282315250545	10
5	16786	37.302315250545	10
5	16795	37.322315250545	10
5	16804	37.342315250545	10
5	16813	37.362315250545	10
5	16822	37.382315250545	10
5	16831	37.402315250545	10
5	16840	37.422315250545	10
5	16849	37.442315250545	10
5	16858	37.462315250545	10
5	16867	37.482315250545	10
5	16876	37.502315250545	10
5	16885	37.522315250545	10
5	16894	37.542315250545	10
5	16903	37.562315250545	10
5	16912	37.582315250545	10
5	16921	37.602315250545	10
5	16930	37.622315250545	10
5	16939	37.642315250545	10
5	16948	37.662315250545	10
5	16957	37.682315250545	10
5	16966	37.702315250545	10
5	16975	37.722315250545	10
5	16984	37.742315250545	10
5	16993	37.762315250545	10
5	17002	37.782315250545	10
5	17011	37.802315250545	10
5	17020	37.822315250545	10
5	17029	37.842315250545	10
5	17038	37.862315250545	10
5	17047	37.882315250545	10
5	17056	37.902315250545	10
5	17065	37.922315250545	10
5	17074	37.942315250545	10
5	17083	37.962315250545	10
5	17092	37.982315250545	10
5	17101	38.002315250545	10
5	17110	38.022315250545	10
5	17119	38.042315250545	10
5	17128	38.062315250545	10
5	17137	38.082315250545	10
5	17146	38.102315250545	10
5	17155	38.122315250545	10
5	17164	38.142315250545	10
5	17173	38.162315250545	10
5	17182	38.182315250545	10
5	17191	38.202315250545	10
5	17200	38.222315250545	10
5	17209	38.242315250545	10
5	17218	38.262315250545	10
5	17227	38.282315250545	10
5	17236	38.302315250545	10
5	17245	38.322315250545	10
5	17254	38.342315250545	10
5	17263	38.362315250545	10
5	17272	38.382315250545	10
5	17281	38.402315250545	10
5	17290	38.422315250545	10
5	17299	38.442315250545	10
5	17308	38.462315250545	10
5	17317	38.482315250545	10
5	17326	38.502315250545	10
5	17335	38.522315250545	10
5	17344	38.542315250545	10
5	17353	38.562315250545	10
5	17362	38.582315250545	10
5	17371	38.602315250545	10
5	17380	38.622315250545	10
5	17389	38.642315250545	10
5	17398	38.662315250545	10
5	17407	38.682315250545	10
5	17416	38.702315250545	10
5	17425	38.722315250545	10
5	17434	38.742315250545	10
5	17443	38.762315250545	10
5	17452	38.782315250545	10
5	17461	38.802315250545	10
5	17470	38.822315250545	10
5	17479	38.842315250545	10
5	17488	38.862315250545	10
5	17497	38.882315250545	10
5	17506	38.902315250545	10
5	17515	38.922315250545	10
5	17524	38.942315250545	10
5	17533	38.962315250545	10
5	17542	38.982315250545	10
5	17551	39.002315250545	10
5	17560	39.022315250545	10
5	17569	39.042315250545	10
5	17578	39.062315250545	10
5	17587	39.082315250545	10
5	17596	39.102315250545	10
5	17605	39.122315250545	10
5	17614	39.142315250545	10
5	17623	39.162315250545	10
5	17632	39.182315250545	10
5	17641	39.202315250545	10
5	17650	39.222315250545	10
5	17659	39.242315250545	10
5	17668	39.262315250545	10
5	17677	39.282315250545	10
5	17686	39.302315250545	10
5	17695	39.322315250545	10
5	17704	39.342315250545	10
5	17713	39.362315250545	10
5	17722	39.382315250545	10
5	17731	39.402315250545	10
5	17740	39.422315250545	10
5	17749	39.442315250545	10
5	17758	39.462315250545	10
5	17767	39.482315250545	10
5	17776	39.502315250545	10
5	17785	39.522315250545	10
5	17794	39.542315250545	10
5	17803	39.562315250545	10
5	17812	39.582315250545	10
5	17821	39.602315250545	10
5	17830	39.622315250545	10
5	17839	39.642315250545	10
5	17848	39.662315250545	10
5	17857	39.682315250545	10
5	17866	39.702315250545	10
5	17875	39.722315250545	10
5	17884	39.742315250545	10
5	17893	39.762315250545	10
5	17902	39.782315250545	10
5	17911	39.802315250545	10
5	17920	39.822315250545	10
5	17929	39.842315250545	10
5	17938	39.862315250545	10
5	17947	39.882315250545	10
5	17956	39.902315250545	10
5	17965	39.922315250545	10
5	17974	39.942315250545	10
5	17983	39.962315250545	10
5	17992	39.982315250545	10
5	18001	40.002315250545	10
5	18010	40.022315250545	10
5	18019	40.042315250545	10
5	18028	40.062315250545	10
5	18037	40.082315250545	10
5	18046	40.102315250545	10
5	18055	40.122315250545	10
5	18064	40.142315250545	10
5	18073	40.162315250545	10
5	18082	40.182315250545	10
5	18091	40.202315250545	10
5	18100	40.222315250545	10
5	18109	40.242315250545	10
5	18118	40.262315250545	10
5	18127	40.282315250545	10
5	18136	40.302315250545	10
5	18145	40.322315250545	10
5	18154	40.342315250545	10
5	18163	40.362315250545	10
5	18172	40.382315250545	10
5	18181	40.402315250545	10
5	18190	40.422315250545	10
5	18199	40.442315250545	10
5	18208	40.462315250545	10
5	18217	40.482315250545	10
5	18226	40.502315250545	10
5	18235	40.522315250545	10
5	18244	40.542315250545	10
5	18253	40.562315250545	10
5	18262	40.582315250545	10
5	18271	40.602315250545	10
5	18280	40.622315250545	10
5	18289	40.642315250545	10
5	18298	40.662315250545	10
5	18307	40.682315250545	10
5	18316	40.702315250545	10
5	18325	40.722315250545	10
5	18334	40.742315250545	10
5	18343	40.762315250545	10
5	18352	40.782315250545	10
5	18361	40.802315250545	10
5	18370	40.822315250545	10
5	18379	40.842315250545	10
5	18388	40.862315250545	10
5	18397	40.882315250545	10
5	18406	40.902315250545	10
5	18415	40.922315250545	10
5	18424	40.942315250545	10
5	18433	40.962315250545	10
5	18442	40.982315250545	10
5	18451	41.002315250545	10
5	18460	41.022315250545	10
5	18469	41.042315250545	10
5	18478	41.062315250545	10
5	18487	41.082315250545	10
5	18496	41.102315250545	10
5	18505	41.122315250545	10
5	18514	41.142315250545	10
5	18523	41.162315250545	10
5	18532	41.182315250545	10
5	18541	41.202315250545	10
5	18550	41.222315250545	10
5	18559	41.242315250545	10
5	18568	41.262315250545	10
5	18577	41.282315250545	10
5	18586	41.302315250545	10
5	18595	41.322315250545	10
5	18604	41.342315250545	10
5	18613	41.362315250545	10
5	18622	41.382315250545	10
5	18631	41.402315250545	10
5	18640	41.422315250545	10
5	18649	41.442315250545	10
5	18658	41.462315250545	10
5	18667	41.482315250545	10
5	18676	41.502315250545	10
5	18685	41.522315250545	10
5	18694	41.542315250545	10
5	18703	41.562315250545	10
5	18712	41.582315250545	10
5	18721	41.602315250545	10
5	18730	41.622315250545	10
5	18739	41.642315250545	10
5	18748	41.662315250545	10
5	18757	41.682315250545	10
5	18766	41.702315250545	10
5	18775	41.722315250545	10
5	18784	41.742315250545	10
5	18793	41.762315250545	10
5	18802	41.782315250545	10
5	18811	41.802315250545	10
5	18820	41.822315250545	10
5	18829	41.842315250545	10
5	18838	41.862315250545	10
5	18847	41.882315250545	10
5	18856	41.902315250545	10
5	18865	41.922315250545	10
5	18874	41.942315250545	10
5	18883	41.962315250545	10
5	18892	41.982315250545	10
5	18901	42.002315250545	10
5	18910	42.022315250545	10
5	18919	42.042315250545	10
5	18928	42.062315250545	10
5	18937	42.082315250545	10
5	18946	42.102315250545	10
5	18955	42.122315250545	10
5	18964	42.142315250545	10
5	18973	42.162315250545	10
5	18982	42.182315250545	10
5	18991	42.202315250545	10
5	19000	42.222315250545	10
5	19009	42.242315250545	10
5	19018	42.262315250545	10
5	19027	42.282315250545	10
5	19036	42.302315250545	10
5	19045	42.322315250545	10
5	19054	42.342315250545	10
5	19063	42.362315250545	10
5	19072	42.382315250545	10
5	19081	42.402315250545	10
5	19090	42.422315250545	10
5	19099	42.442315250545	10
5	19108	42.462315250545	10
5	19117	42.482315250545	10
5	19126	42.502315250545	10
5	19135	42.522315250545	10
5	19144	42.542315250545	10
5	19153	42.562315250545	10
5	19162	42.582315250545	10
5	19171	42.602315250545	10
5	19180	42.622315250545	10
5	19189	42.642315250545	10
5	19198	42.662315250545	10
5	19207	42.682315250545	10
5	19216	42.702315250545	10
5	19225	42.722315250545	10
5	19234	42.742315250545	10
5	19243	42.762315250545	10
5	19252	42.782315250545	10
5	19261	42.802315250545	10
5	19270	42.822315250545	10
5	19279	42.842315250545	10
5	19288	42.862315250545	10
5	19297	42.882315250545	10
5	19306	42.902315250545	10
5	19315	42.922315250545	10
5	19324	42.942315250545	10
5	19333	42.962315250545	10
5	19342	42.982315250545	10
5	19351	43.002315250545	10
5	19360	43.022315250545	10
5	19369	43.042315250545	10
5	19378	43.062315250545	10
5	19387	43.082315250545	10
5	19396	43.102315250545	10
5	19405	43.122315250545	10
5	19414	43.142315250545	10
5	19423	43.162315250545	10
5	19432	43.182315250545	10
5	19441	43.202315250545	10
5	19450	43.222315250545	10
5	19459	43.242315250545	10
5	19468	43.262315250545	10
5	19477	43.282315250545	10
5	19486	43.302315250545	10
5	19495	43.322315250545	10
5	19504	43.342315250545	10
5	19513	43.362315250545	10
5	19522	43.382315250545	10
5	19531	43.402315250545	10
5	19540	43.422315250545	10
5	19549	43.442315250545	10
5	19558	43.462315250545	10
5	19567	43.482315250545	10
5	19576	43.502315250545	10
5	19585	43.522315250545	10
5	19594	43.542315250545	10
5	19603	43.562315250545	10
5	19612	43.582315250545	10
5	19621	43.602315250545	10
5	19630	43.622315250545	10
5	19639	43.642315250545	10
5	19648	43.662315250545	10
5	19657	43.682315250545	10
5	19666	43.702315250545	10
5	19675	43.722315250545	10
5	19684	43.742315250545	10
5	19693	43.762315250545	10
5	19702	43.782315250545	10
5	19711	43.802315250545	10
5	19720	43.822315250545	10
5	19729	43.842315250545	10
5	19738	43.862315250545	10
5	19747	43.882315250545	10
5	19756	43.902315250545	10
5	19765	43.922315250545	10
5	19774	43.942315250545	10
5	19783	43.962315250545	10
5	19792	43.982315250545	10
5	19801	44.002315250545	10
5	19810	44.022315250545	10
5	19819	44.042315250545	10
5	19828	44.062315250545	10
5	19837	44.082315250545	10
5	19846	44.102315250545	10
5	19855	44.122315250545	10
5	19864	44.142315250545	10
5	19873	44.162315250545	10
5	19882	44.182315250545	10
5	19891	44.202315250545	10
5	19900	44.222315250545	10
5	19909	44.242315250545	10
5	19918	44.262315250545	10
5	19927	44.282315250545	10
5	19936	44.302315250545	10
5	19945	44.322315250545	10
5	19954	44.342315250545	10
5	19963	44.362315250545	10
5	19972	44.382315250545	10
5	19981	44.402315250545	10
5	19990	44.422315250545	10
5	19999	44.442315250545	10
5	20008	44.462315250545	10
5	20017	44.482315250545	10
5	20026	44.502315250545	10
5	20035	44.522315250545	10
5	20044	44.542315250545	10
5	20053	44.562315250545	10
5	20062	44.582315250545	10
5	20071	44.602315250545	10
5	20080	44.622315250545	10
5	20089	44.642315250545	10
5	20098	44.662315250545	10
5	20107	44.682315250545	10
5	20116	44.702315250545	10
5	20125	44.722315250545	10
5	20134	44.742315250545	10
5	20143	44.762315250545	10
5	20152	44.782315250545	10
5	20161	44.802315250545	10
5	20170	44.822315250545	10
5	20179	44.842315250545	10
5	20188	44.862315250545	10
5	20197	44.882315250545	10
5	20206	44.902315250545	10
5	20215	44.922315250545	10
5	20224	44.942315250545	10
5	20233	44.962315250545	10
5	20242	44.982315250545	10
5	20251	45.002315250545	10
5	20260	45.022315250545	10
5	20269	45.042315250545	10
5	20278	45.062315250545	10
5	20287	45.082315250545	10
5	20296	45.102315250545	10
5	20305	45.122315250545	10
5	20314	45.142315250545	10
5	20323	45.162315250545	10
5	20332	45.182315250545	10
5	20341	45.202315250545	10
5	20350	45.222315250545	10
5	20359	45.242315250545	10
5	20368	45.262315250545	10
5	20377	45.282315250545	10
5	20386	45.302315250545	10
5	20395	45.322315250545	10
5	20404	45.342315250545	10
5	20413	45.362315250545	10
5	20422	45.382315250545	10
5	20431	45.402315250545	10
5	20440	45.422315250545	10
5	20449	45.442315250545	10
5	20458	45.462315250545	10
5	20467	45.482315250545	10
5	20476	45.502315250545	10
5	20485	45.522315250545	10
5	20494	45.542315250545	10
5	20503	45.562315250545	10
5	20512	45.582315250545	10
5	20521	45.602315250545	10
5	20530	45.622315250545	10
5	20539	45.642315250545	10
5	20548	45.662315250545	10
5	20557	45.682315250545	10
5	20566	45.702315250545	10
5	20575	45.722315250545	10
5	20584	45.742315250545	10
5	20593	45.762315250545	10
5	20602	45.782315250545	10
5	20611	45.802315250545	10
5	20620	45.822315250545	10
5	20629	45.842315250545	10
5	20638	45.862315250545	10
5	20647	45.882315250545	10
5	20656	45.902315250545	10
5	20665	45.922315250545	10
5	20674	45.942315250545	10
5	20683	45.962315250545	10
5	20692	45.982315250545	10
5	20701	46.002315250545	10
5	20710	46.022315250545	10
5	20719	46.042315250545	10
5	20728	46.062315250545	10
5	20737	46.082315250545	10
5	20746	46.102315250545	10
5	20755	46.122315250545	10
5	20764	46.142315250545	10
5	20773	46.162315250545	10
5	20782	46.182315250545	10
5	20791	46.202315250545	10
5	20800	46.222315250545	10
5	20809	46.242315250545	10
5	20818	46.262315250545	10
5	20827	46.282315250545	10
5	20836	46.302315250545	10
5	20845	46.322315250545	10
5	20854	46.342315250545	10
5	20863	46.362315250545	10
5	20872	46.382315250545	10
5	20881	46.402315250545	10
5	20890	46.422315250545	10
5	20899	46.442315250545	10
5	20908	46.462315250545	10
5	20917	46.482315250545	10
5	20926	46.502315250545	10
5	20935	46.522315250545	10
5	20944	46.542315250545	10
5	20953	46.562315250545	10
5	20962	46.582315250545	10
5	20971	46.602315250545	10
5	20980	46.622315250545	10
5	20989	46.642315250545	10
5	20998	46.662315250545	10
5	21007	46.682315250545	10
5	21016	46.702315250545	10
5	21025	46.722315250545	10
5	21034	46.742315250545	10
5	21043	46.762315250545	10
5	21052	46.782315250545	10
5	21061	46.802315250545	10
5	21070	46.822315250545	10
5	21079	46.842315250545	10
5	21088	46.862315250545	10
5	21097	46.882315250545	10
5	21106	46.902315250545	10
5	21115	46.922315250545	10
5	21124	46.942315250545	10
5	21133	46.962315250545	10
5	21142	46.982315250545	10
5	21151	47.002315250545	10
5	21160	47.022315250545	10
5	21169	47.042315250545	10
5	21178	47.062315250545	10
5	21187	47.082315250545	10
5	21196	47.102315250545	10
5	21205	47.122315250545	10
5	21214	47.142315250545	10
5	21223	47.162315250545	10
5	21232	47.182315250545	10
5	21241	47.202315250545	10
5	21250	47.222315250545	10
5	21259	47.242315250545	10
5	21268	47.262315250545	10
5	21277	47.282315250545	10
5	21286	47.302315250545	10
5	21295	47.322315250545	10
5	21304	47.342315250545	10
5	21313	47.362315250545	10
5	21322	47.382315250545	10
5	21331	47.402315250545	10
5	21340	47.422315250545	10
5	21349	47.442315250545	10
5	21358	47.462315250545	10
5	21367	47.482315250545	10
5	21376	47.502315250545	10
5	21385	47.522315250545	10
5	21394	47.542315250545	10
5	21403	47.562315250545	10
5	21412	47.582315250545	10
5	21421	47.602315250545	10
5	21430	47.622315250545	10
5	21439	47.642315250545	10
5	21448	47.662315250545	10
5	21457	47.682315250545	10
5	21466	47.702315250545	10
5	21475	47.722315250545	10
5	21484	47.742315250545	10
5	21493	47.762315250545	10
5	21502	47.782315250545	10
5	21511	47.802315250545	10
5	21520	47.822315250545	10
5	21529	47.842315250545	10
5	21538	47.862315250545	10
5	21547	47.882315250545	10
5	21556	47.902315250545	10
5	21565	47.922315250545	10
5	21574	47.942315250545	10
5	21583	47.962315250545	10
5	21592	47.982315250545	10
5	21601	48.002315250545	10
5	21610	48.022315250545	10
5	21619	48.042315250545	10
5	21628	48.062315250545	10
5	21637	48.082315250545	10
5	21646	48.102315250545	10
5	21655	48.122315250545	10
5	21664	48.142315250545	10
5	21673	48.162315250545	10
5	21682	48.182315250545	10
5	21691	48.202315250545	10
5	21700	48.222315250545	10
5	21709	48.242315250545	10
5	21718	48.262315250545	10
5	21727	48.282315250545	10
5	21736	48.302315250545	10
5	21745	48.322315250545	10
5	21754	48.342315250545	10
5	21763	48.362315250545	10
5	21772	48.382315250545	10
5	21781	48.402315250545	10
5	21790	48.422315250545	10
5	21799	48.442315250545	10
5	21808	48.462315250545	10
5	21817	48.482315250545	10
5	21826	48.502315250545	10
5	21835	48.522315250545	10
5	21844	48.542315250545	10
5	21853	48.562315250545	10
5	21862	48.582315250545	10
5	21871	48.602315250545	10
5	21880	48.622315250545	10
5	21889	48.642315250545	10
5	21898	48.662315250545	10
5	21907	48.682315250545	10
5	21916	48.702315250545	10
5	21925	48.722315250545	10
5	21934	48.742315250545	10
5	21943	48.762315250545	10
5	21952	48.782315250545	10
5	21961	48.802315250545	10
5	21970	48.822315250545	10
5	21979	48.842315250545	10
5	21988	48.862315250545	10
5	21997	48.882315250545	10
5	22006	48.902315250545	10
5	22015	48.922315250545	10
5	22024	48.942315250545	10
5	22033	48.962315250545	10
5	22042	48.982315250545	10
5	22051	49.002315250545	10
5	22060	49.022315250545	10
5	22069	49.042315250545	10
5	22078	49.062315250545	10
5	22087	49.082315250545	10
5	22096	49.102315250545	10
5	22105	49.122315250545	10
5	22114	49.142315250545	10
5	22123	49.162315250545	10
5	22132	49.182315250545	10
5	22141	49.202315250545	10
5	22150	49.222315250545	10
5	22159	49.242315250545	10
5	22168	49.262315250545	10
5	22177	49.282315250545	10
5	22186	49.302315250545	10
5	22195	49.322315250545	10
5	22204	49.342315250545	10
5	22213	49.362315250545	10
5	22222	49.382315250545	10
5	22231	49.402315250545	10
5	22240	49.422315250545	10
5	22249	49.442315250545	10
5	22258	49.462315250545	10
5	22267	49.482315250545	10
5	22276	49.502315250545	10
5	22285	49.522315250545	10
5	22294	49.542315250545	10
5	22303	49.562315250545	10
5	22312	49.582315250545	10
5	22321	49.602315250545	10
5	22330	49.622315250545	10
5	22339	49.642315250545	10
5	22348	49.662315250545	10
5	22357	49.682315250545	10
5	22366	49.702315250545	10
5	22375	49.722315250545	10
5	22384	49.742315250545	10
5	22393	49.762315250545	10
5	22402	49.782315250545	10
5	22411	49.802315250545	10
5	22420	49.822315250545	10
5	22429	49.842315250545	10
5	22438	49.862315250545	10
5	22447	49.882315250545	10
5	22456	49.902315250545	10
5	22465	49.922315250545	10
5	22474	49.942315250545	10
5	22483	49.962315250545	10
5	22492	49.982315250545	10
5	22501	50.002315250545	10
5	22510	50.022315250545	10
5	22519	50.042315250545	10
5	22528	50.062315250545	10
5	22537	50.082315250545	10
5	22546	50.102315250545	10
5	22555	50.122315250545	10
5	22564	50.142315250545	10
5	22573	50.162315250545	10
5	22582	50.182315250545	10
5	22591	50.202315250545	10
5	22600	50.222315250545	10
5	22609	50.242315250545	10
5	22618	50.262315250545	10
5	22627	50.282315250545	10
5	22636	50.302315250545	10
5	22645	50.322315250545	10
5	22654	50.342315250545	10
5	22663	50.362315250545	10
5	22672	50.382315250545	10
5	22681	50.402315250545	10
5	22690	50.422315250545	10
5	22699	50.442315250545	10
5	22708	50.462315250545	10
5	22717	50.482315250545	10
5	22726	50.502315250545	10
5	22735	50.522315250545	10
5	22744	50.542315250545	10
5	22753	50.562315250545	10
5	22762	50.582315250545	10
5	22771	50.602315250545	10
5	22780	50.622315250545	10
5	22789	50.642315250545	10
5	22798	50.662315250545	10
5	22807	50.682315250545	10
5	22816	50.702315250545	10
5	22825	50.722315250545	10
5	22834	50.742315250545	10
5	22843	50.762315250545	10
5	22852	50.782315250545	10
5	22861	50.802315250545	10
5	22870	50.822315250545	10
5	22879	50.842315250545	10
5	22888	50.862315250545	10
5	22897	50.882315250545	10
5	22906	50.902315250545	10
5	22915	50.922315250545	10
5	22924	50.942315250545	10
5	22933	50.962315250545	10
5	22942	50.982315250545	10
5	22951	51.002315250545	10
5	22960	51.022315250545	10
5	22969	51.042315250545	10
5	22978	51.062315250545	10
5	22987	51.082315250545	10
5	22996	51.102315250545	10
5	23005	51.122315250545	10
5	23014	51.142315250545	10
5	23023	51.162315250545	10
5	23032	51.182315250545	10
5	23041	51.202315250545	10
5	23050	51.222315250545	10
5	23059	51.242315250545	10
5	23068	51.262315250545	10
5	23077	51.282315250545	10
5	23086	51.302315250545	10
5	23095	51.322315250545	10
5	23104	51.342315250545	10
5	23113	51.362315250545	10
5	23122	51.382315250545	10
5	23131	51.402315250545	10
5	23140	51.422315250545	10
5	23149	51.442315250545	10
5	23158	51.462315250545	10
5	23167	51.482315250545	10
5	23176	51.502315250545	10
5	23185	51.522315250545	10
5	23194	51.542315250545	10
5	23203	51.562315250545	10
5	23212	51.582315250545	10
5	23221	51.602315250545	10
5	23230	51.622315250545	10
5	23239	51.642315250545	10
5	23248	51.662315250545	10
5	23257	51.682315250545	10
5	23266	51.702315250545	10
5	23275	51.722315250545	10
5	23284	51.742315250545	10
5	23293	51.762315250545	10
5	23302	51.782315250545	10
5	23311	51.802315250545	10
5	23320	51.822315250545	10
5	23329	51.842315250545	10
5	23338	51.862315250545	10
5	23347	51.882315250545	10
5	23356	51.902315250545	10
5	23365	51.922315250545	10
5	23374	51.942315250545	10
5	23383	51.962315250545	10
5	23392	51.982315250545	10
5	23401	52.002315250545	10
5	23410	52.022315250545	10
5	23419	52.042315250545	10
5	23428	52.062315250545	10
5	23437	52.082315250545	10
5	23446	52.102315250545	10
5	23455	52.122315250545	10
5	23464	52.142315250545	10
5	23473	52.162315250545	10
5	23482	52.182315250545	10
5	23491	52.202315250545	10
5	23500	52.222315250545	10
5	23509	52.242315250545	10
5	23518	52.262315250545	10
5	23527	52.282315250545	10
5	23536	52.302315250545	10
5	23545	52.322315250545	10
5	23554	52.342315250545	10
5	23563	52.362315250545	10
5	23572	52.382315250545	10
5	23581	52.402315250545	10
5	23590	52.422315250545	10
5	23599	52.442315250545	10
5	23608	52.462315250545	10
5	23617	52.482315250545	10
5	23626	52.502315250545	10
5	23635	52.522315250545	10
5	23644	52.542315250545	10
5	23653	52.562315250545	10
5	23662	52.582315250545	10
5	23671	52.602315250545	10
5	23680	52.622315250545	10
5	23689	52.642315250545	10
5	23698	52.662315250545	10
5	23707	52.682315250545	10
5	23716	52.702315250545	10
5	23725	52.722315250545	10
5	23734	52.742315250545	10
5	23743	52.762315250545	10
5	23752	52.782315250545	10
5	23761	52.802315250545	10
5	23770	52.822315250545	10
5	23779	52.842315250545	10
5	23788	52.862315250545	10
5	23797	52.882315250545	10
5	23806	52.902315250545	10
5	23815	52.922315250545	10
5	23824	52.942315250545	10
5	23833	52.962315250545	10
5	23842	52.982315250545	10
5	23851	53.002315250545	10
5	23860	53.022315250545	10
5	23869	53.042315250545	10
5	23878	53.062315250545	10
5	23887	53.082315250545	10
5	23896	53.102315250545	10
5	23905	53.122315250545	10
5	23914	53.142315250545	10
5	23923	53.162315250545	10
5	23932	53.182315250545	10
5	23941	53.202315250545	10
5	23950	53.222315250545	10
5	23959	53.242315250545	10
5	23968	53.262315250545	10
5	23977	53.282315250545	10
5	23986	53.302315250545	10
5	23995	53.322315250545	10
5	24004	53.342315250545	10
5	24013	53.362315250545	10
5	24022	53.382315250545	10
5	24031	53.402315250545	10
5	24040	53.422315250545	10
5	24049	53.442315250545	10
5	24058	53.462315250545	10
5	24067	53.482315250545	10
5	24076	53.502315250545	10
5	24085	53.522315250545	10
5	24094	53.542315250545	10
5	24103	53.562315250545	10
5	24112	53.582315250545	10
5	24121	53.602315250545	10
5	24130	53.622315250545	10
5	24139	53.642315250545	10
5	24148	53.662315250545	10
5	24157	53.682315250545	10
5	24166	53.702315250545	10
5	24175	53.722315250545	10
5	24184	53.742315250545	10
5	24193	53.762315250545	10
5	24202	53.782315250545	10
5	24211	53.802315250545	10
5	24220	53.822315250545	10
5	24229	53.842315250545	10
5	24238	53.862315250545	10
5	24247	53.882315250545	10
5	24256	53.902315250545	10
5	24265	53.922315250545	10
5	24274	53.942315250545	10
5	24283	53.962315250545	10
5	24292	53.982315250545	10
5	24301	54.002315250545	10
5	24310	54.022315250545	10
5	24319	54.042315250545	10
5	24328	54.062315250545	10
5	24337	54.082315250545	10
5	24346	54.102315250545	10
5	24355	54.122315250545	10
5	24364	54.142315250545	10
5	24373	54.162315250545	10
5	24382	54.182315250545	10
5	24391	54.202315250545	10
5	24400	54.222315250545	10
5	24409	54.242315250545	10
5	24418	54.262315250545	10
5	24427	54.282315250545	10
5	24436	54.302315250545	10
5	24445	54.322315250545	10
5	24454	54.342315250545	10
5	24463	54.362315250545	10
5	24472	54.382315250545	10
5	24481	54.402315250545	10
5	24490	54.422315250545	10
5	24499	54.442315250545	10
5	24508	54.462315250545	10
5	24517	54.482315250545	10
5	24526	54.502315250545	10
5	24535	54.522315250545	10
5	24544	54.542315250545	10
5	24553	54.562315250545	10
5	24562	54.582315250545	10
5	24571	54.602315250545	10
5	24580	54.622315250545	10
5	24589	54.642315250545	10
5	24598	54.662315250545	10
5	24607	54.682315250545	10
5	24616	54.702315250545	10
5	24625	54.722315250545	10
5	24634	54.742315250545	10
5	24643	54.762315250545	10
5	24652	54.782315250545	10
5	24661	54.802315250545	10
5	24670	54.822315250545	10
5	24679	54.842315250545	10
5	24688	54.862315250545	10
5	24697	54.882315250545	10
5	24706	54.902315250545	10
5	24715	54.922315250545	10
5	24724	54.942315250545	10
5	24733	54.962315250545	10
5	24742	54.982315250545	10
5	24751	55.002315250545	10
5	24760	55.022315250545	10
5	24769	55.042315250545	10
5	24778	55.062315250545	10
5	24787	55.082315250545	10
5	24796	55.102315250545	10
5	24805	55.122315250545	10
5	24814	55.142315250545	10
5	24823	55.162315250545	10
5	24832	55.182315250545	10
5	24841	55.202315250545	10
5	24850	55.222315250545	10
5	24859	55.242315250545	10
5	24868	55.262315250545	10
5	24877	55.282315250545	10
5	24886	55.302315250545	10
5	24895	55.322315250545	10
5	24904	55.342315250545	10
5	24913	55.362315250545	10
5	24922	55.382315250545	10
5	24931	55.402315250545	10
5	24940	55.422315250545	10
5	24949	55.442315250545	10
5	24958	55.462315250545	10
5	24967	55.482315250545	10
5	24976	55.502315250545	10
5	24985	55.522315250545	10
5	24994	55.542315250545	10
5	25003	55.562315250545	10
5	25012	55.582315250545	10
5	25021	55.602315250545	10
5	25030	55.622315250545	10
5	25039	55.642315250545	10
5	25048	55.662315250545	10
5	25057	55.682315250545	10
5	25066	55.702315250545	10
5	25075	55.722315250545	10
5	25084	55.742315250545	10
5	25093	55.762315250545	10
5	25102	55.782315250545	10
5	25111	55.802315250545	10
5	25120	55.822315250545	10
5	25129	55.842315250545	10
5	25138	55.862315250545	10
5	25147	55.882315250545	10
5	25156	55.902315250545	10
5	25165	55.922315250545	10
5	25174	55.942315250545	10
5	25183	55.962315250545	10
5	25192	55.982315250545	10
5	25201	56.002315250545	10
5	25210	56.022315250545	10
5	25219	56.042315250545	10
5	25228	56.062315250545	10
5	25237	56.082315250545	10
5	25246	56.102315250545	10
5	25255	56.122315250545	10
5	25264	56.142315250545	10
5	25273	56.162315250545	10
5	25282	56.182315250545	10
5	25291	56.202315250545	10
5	25300	56.222315250545	10
5	25309	56.242315250545	10
5	25318	56.262315250545	10
5	25327	56.282315250545	10
5	25336	56.302315250545	10
5	25345	56.322315250545	10
5	25354	56.342315250545	10
5	25363	56.362315250545	10
5	25372	56.382315250545	10
5	25381	56.402315250545	10
5	25390	56.422315250545	10
5	25399	56.442315250545	10
5	25408	56.462315250545	10
5	25417	56.482315250545	10
5	25426	56.502315250545	10
5	25435	56.522315250545	10
5	25444	56.542315250545	10
5	25453	56.562315250545	10
5	25462	56.582315250545	10
5	25471	56.602315250545	10
5	25480	56.622315250545	10
5	25489	56.642315250545	10
5	25498	56.662315250545	10
5	25507	56.682315250545	10
5	25516	56.702315250545	10
5	25525	56.722315250545	10
5	25534	56.742315250545	10
5	25543	56.762315250545	10
5	25552	56.782315250545	10
5	25561	56.802315250545	10
5	25570	56.822315250545	10
5	25579	56.842315250545	10
5	25588	56.862315250545	10
5	25597	56.882315250545	10
5	25606	56.902315250545	10
5	25615	56.922315250545	10
5	25624	56.942315250545	10
5	25633	56.962315250545	10
5	25642	56.982315250545	10
5	25651	57.002315250545	10
5	25660	57.022315250545	10
5	25669	57.042315250545	10
5	25678	57.062315250545	10
5	25687	57.082315250545	10
5	25696	57.102315250545	10
5	25705	57.122315250545	10
5	25714	57.142315250545	10
5	25723	57.162315250545	10
5	25732	57.182315250545	10
5	25741	57.202315250545	10
5	25750	57.222315250545	10
5	25759	57.242315250545	10
5	25768	57.262315250545	10
5	25777	57.282315250545	10
5	25786	57.302315250545	10
5	25795	57.322315250545	10
5	25804	57.342315250545	10
5	25813	57.362315250545	10
5	25822	57.382315250545	10
5	25831	57.402315250545	10
5	25840	57.422315250545	10
5	25849	57.442315250545	10
5	25858	57.462315250545	10
5	25867	57.482315250545	10
5	25876	57.502315250545	10
5	25885	57.522315250545	10
5	25894	57.542315250545	10
5	25903	57.562315250545	10
5	25912	57.582315250545	10
5	25921	57.602315250545	10
5	25930	57.622315250545	10
5	25939	57.642315250545	10
5	25948	57.662315250545	10
5	25957	57.682315250545	10
5	25966	57.702315250545	10
5	25975	57.722315250545	10
5	25984	57.742315250545	10
5	25993	57.762315250545	10
5	26002	57.782315250545	10
5	26011	57.802315250545	10
5	26020	57.822315250545	10
5	26029	57.842315250545	10
5	26038	57.862315250545	10
5	26047	57.882315250545	10
5	26056	57.902315250545	10
5	26065	57.922315250545	10
5	26074	57.942315250545	10
5	26083	57.962315250545	10
5	26092	57.982315250545	10
5	26101	58.002315250545	10
5	26110	58.022315250545	10
5	26119	58.042315250545	10
5	26128	58.062315250545	10
5	26137	58.082315250545	10
[...]
12	45000	73.1	0
12	45000	73.2	0
12	45000	73.3	0
12	45000	73.4	0
12	45000	73.5	0
12	45000	73.6	0
12	45000	73.7	0
12	45000	73.8	0
12	45000	73.9	0
12	45000	74	0
12	45000	74.1	0
12	45000	74.2	0
12	45000	74.3	0
12	45000	74.4	0
12	45000	74.5	0
12	45000	74.6	0
12	45000	74.7	0
12	45000	74.8	0
12	45000	74.9	0
12	45000	75	0
12	45000	75.1	0
12	45000	75.2	0
12	45000	75.3	0
12	45000	75.4	0
12	45000	75.5	0
12	45000	75.6	0
12	45000	75.7	0
12	45000	75.8	0
12	45000	75.9	0
12	45000	76	0
12	45000	76.1	0
12	45000	76.2	0
12	45000	76.3	0
12	45000	76.4	0
12	45000	76.5	0
12	45000	76.6	0
12	45000	76.7	0
12	45000	76.8	0
12	45000	76.9	0
12	45000	77	0
12	45000	77.1	0
12	45000	77.2	0
12	45000	77.3	0
12	45000	77.4	0
12	45000	77.5	0
12	45000	77.6	0
12	45000	77.7	0
12	45000	77.8	0
12	45000	77.9	0
12	45000	78	0
12	45000	78.1	0
12	45000	78.2	0
12	45000	78.3	0
12	45000	78.4	0
12	45000	78.5	0
12	45000	78.6	0
12	45000	78.7	0
12	45000	78.8	0
12	45000	78.9	0
12	45000	79	0
12	45000	79.1	0
12	45000	79.2	0
12	45000	79.3	0
12	45000	79.4	0
12	45000	79.5	0
12	45000	79.6	0
12	45000	79.7	0
12	45000	79.8	0
12	45000	79.9	0
12	45000	80	0
12	45000	80.1	0
12	45000	80.2	0
12	45000	80.3	0
12	45000	80.4	0
12	45000	80.5	0
12	45000	80.6	0
12	45000	80.7	0
12	45000	80.8	0
12	45000	80.9	0
12	45000	81	0
12	45000	81.1	0
12	45000	81.2	0
12	45000	81.3	0
12	45000	81.4	0
12	45000	81.5	0
12	45000	81.6	0
12	45000	81.7	0
12	45000	81.8	0
12	45000	81.9	0
12	45000	82	0
12	45000	82.1	0
12	45000	82.2	0
12	45000	82.3	0
12	45000	82.4	0
12	45000	82.5	0
12	45000	82.6	0
12	45000	82.7	0
12	45000	82.8	0
12	45000	82.9	0
12	45000	83	0
12	45000	83.1	0
12	45000	83.2	0
12	45000	83.3	0
12	45000	83.4	0
12	45000	83.5	0
12	45000	83.6	0
12	45000	83.7	0
12	45000	83.8	0
12	45000	83.9	0
12	45000	84	0
12	45000	84.1	0
12	45000	84.2	0
12	45000	84.3	0
12	45000	84.4	0
12	45000	84.5	0
12	45000	84.6	0
12	45000	84.7	0
12	45000	84.8	0
12	45000	84.9	0
12	45000	85	0
12	45000	85.1	0
12	45000	85.2	0
12	45000	85.3	0
12	45000	85.4	0
12	45000	85.5	0
12	45000	85.6	0
12	45000	85.7	0
12	45000	85.8	0
12	45000	85.9	0
12	45000	86	0
12	45000	86.1	0
12	45000	86.2	0
12	45000	86.3	0
12	45000	86.4	0
12	45000	86.5	0
12	45000	86.6	0
12	45000	86.7	0
12	45000	86.8	0
12	45000	86.9	0
12	45000	87	0
12	45000	87.1	0
12	45000	87.2	0
12	45000	87.3	0
12	45000	87.4	0
12	45000	87.5	0
12	45000	87.6	0
12	45000	87.7	0
12	45000	87.8	0
12	45000	87.9	0
12	45000	88	0
12	45000	88.1	0
12	45000	88.2	0
12	45000	88.3	0
12	45000	88.4	0
12	45000	88.5	0
12	45000	88.6	0
12	45000	88.7	0
12	45000	88.8	0
12	45000	88.9	0
12	45000	89	0
12	45000	89.1	0
12	45000	89.2	0
12	45000	89.3	0
12	45000	89.4	0
12	45000	89.5	0
12	45000	89.6	0
12	45000	89.7	0
12	45000	89.8	0
12	45000	89.9	0
12	45000	90	0
12	45000	90.1	0
12	45000	90.2	0
12	45000	90.3	0
12	45000	90.4	0
12	45000	90.5	0
12	45000	90.6	0
12	45000	90.7	0
12	45000	90.8	0
12	45000	90.9	0
12	45000	91	0
12	45000	91.1	0
12	45000	91.2	0
12	45000	91.3	0
12	45000	91.4	0
12	45000	91.5	0
12	45000	91.6	0
12	45000	91.7	0
12	45000	91.8	0
12	45000	91.9	0
12	45000	92	0
12	45000	92.1	0
12	45000	92.2	0
12	45000	92.3	0
12	45000	92.4	0
12	45000	92.5	0
12	45000	92.6	0
12	45000	92.7	0
12	45000	92.8	0
12	45000	92.9	0
12	45000	93	0
12	45000	93.1	0
12	45000	93.2	0
12	45000	93.3	0
12	45000	93.4	0
12	45000	93.5	0
12	45000	93.6	0
12	45000	93.7	0
12	45000	93.8	0
12	45000	93.9	0
12	45000	94	0
12	45000	94.1	0
12	45000	94.2	0
12	45000	94.3	0
12	45000	94.4	0
12	45000	94.5	0
12	45000	94.6	0
12	45000	94.7	0
12	45000	94.8	0
12	45000	94.9	0
12	45000	95	0
12	45000	95.1	0
12	45000	95.2	0
12	45000	95.3	0
12	45000	95.4	0
12	45000	95.5	0
12	45000	95.6	0
12	45000	95.7	0
12	45000	95.8	0
12	45000	95.9	0
12	45000	96	0
12	45000	96.1	0
12	45000	96.2	0
12	45000	96.3	0
12	45000	96.4	0
12	45000	96.5	0
12	45000	96.6	0
12	45000	96.7	0
12	45000	96.8	0
12	45000	96.9	0
12	45000	97	0
12	45000	97.1	0
12	45000	97.2	0
12	45000	97.3	0
12	45000	97.4	0
12	45000	97.5	0
12	45000	97.6	0
12	45000	97.7	0
12	45000	97.8	0
12	45000	97.9	0
12	45000	98	0
12	45000	98.1	0
12	45000	98.2	0
12	45000	98.3	0
12	45000	98.4	0
12	45000	98.5	0
12	45000	98.6	0
12	45000	98.7	0
12	45000	98.8	0
12	45000	98.9	0
12	45000	99	0
12	45000	99.1	0
12	45000	99.2	0
12	45000	99.3	0
12	45000	99.4	0
12	45000	99.5	0
12	45000	99.6	0
12	45000	99.7	0
12	45000	99.8	0
12	45000	99.9	0
12	45000	99.99254756865	0
13	45000	0.1	0
13	45000	0.2	0
13	45000	0.3	0
13	45000	0.4	0
13	45000	0.5	0
13	45000	0.6	0
13	45000	0.7	0
13	45000	0.8	0
13	45000	0.9	0
13	45000	1	0
13	45000	1.1	0
13	45000	1.2	0
13	45000	1.3	0
13	45000	1.4	0
13	45000	1.5	0
13	45000	1.6	0
13	45000	1.7	0
13	45000	1.8	0
13	45000	1.9	0
13	45000	2	0
13	45000	2.1	0
13	45000	2.2	0
13	45000	2.3	0
13	45000	2.4	0
13	45000	2.5	0
13	45000	2.6	0
13	45000	2.7	0
13	45000	2.8	0
13	45000	2.9	0
13	45000	3	0
13	45000	3.1	0
13	45000	3.2	0
13	45000	3.3	0
13	45000	3.4	0
13	45000	3.5	0
13	45000	3.6	0
13	45000	3.7	0
13	45000	3.8	0
13	45000	3.9	0
13	45000	4	0
13	45000	4.1	0
13	45000	4.2	0
13	45000	4.3	0
13	45000	4.4	0
13	45000	4.5	0
13	45000	4.6	0
13	45000	4.7	0
13	45000	4.8	0
13	45000	4.9	0
13	45000	5	0
13	45000	5.1	0
13	45000	5.2	0
13	45000	5.3	0
13	45000	5.4	0
13	45000	5.5	0
13	45000	5.6	0
13	45000	5.7	0
13	45000	5.8	0
13	45000	5.9	0
13	45000	6	0
13	45000	6.1	0
13	45000	6.2	0
13	45000	6.3	0
13	45000	6.4	0
13	45000	6.5	0
13	45000	6.6	0
13	45000	6.7	0
13	45000	6.8	0
13	45000	6.9	0
13	45000	7	0
13	45000	7.1	0
13	45000	7.2	0
13	45000	7.3	0
13	45000	7.4	0
13	45000	7.5	0
13	45000	7.6	0
13	45000	7.7	0
13	45000	7.8	0
13	45000	7.9	0
13	45000	8	0
13	45000	8.1	0
13	45000	8.2	0
13	45000	8.3	0
13	45000	8.4	0
13	45000	8.5	0
13	45000	8.6	0
13	45000	8.7	0
13	45000	8.8	0
13	45000	8.9	0
13	45000	9	0
13	45000	9.1	0
13	45000	9.2	0
13	45000	9.3	0
13	45000	9.4	0
13	45000	9.5	0
13	45000	9.6	0
13	45000	9.7	0
13	45000	9.8	0
13	45000	9.9	0
13	45000	10	0
13	45000	10.1	0
13	45000	10.2	0
13	45000	10.3	0
13	45000	10.4	0
13	45000	10.5	0
13	45000	10.6	0
13	45000	10.7	0
13	45000	10.8	0
13	45000	10.9	0
13	45000	11	0
13	45000	11.1	0
13	45000	11.2	0
13	45000	11.3	0
13	45000	11.4	0
13	45000	11.5	0
13	45000	11.6	0
13	45000	11.7	0
13	45000	11.8	0
13	45000	11.9	0
13	45000	12	0
13	45000	12.1	0
13	45000	12.2	0
13	45000	12.3	0
13	45000	12.4	0
13	45000	12.5	0
13	45000	12.6	0
13	45000	12.7	0
13	45000	12.8	0
13	45000	12.9	0
13	45000	13	0
13	45000	13.1	0
13	45000	13.2	0
13	45000	13.3	0
13	45000	13.4	0
13	45000	13.5	0
13	45000	13.6	0
13	45000	13.7	0
13	45000	13.8	0
13	45000	13.9	0
13	45000	14	0
13	45000	14.1	0
13	45000	14.2	0
13	45000	14.3	0
13	45000	14.4	0
13	45000	14.5	0
13	45000	14.6	0
13	45000	14.7	0
13	45000	14.8	0
13	45000	14.9	0
13	45000	15	0
13	45000	15.1	0
13	45000	15.2	0
13	45000	15.3	0
13	45000	15.4	0
13	45000	15.5	0
13	45000	15.6	0
13	45000	15.7	0
13	45000	15.8	0
13	45000	15.9	0
13	45000	16	0
13	45000	16.1	0
13	45000	16.2	0
13	45000	16.3	0
13	45000	16.4	0
13	45000	16.5	0
13	45000	16.6	0
13	45000	16.7	0
13	45000	16.8	0
13	45000	16.9	0
13	45000	17	0
13	45000	17.1	0
13	45000	17.2	0
13	45000	17.3	0
13	45000	17.4	0
13	45000	17.5	0
13	45000	17.6	0
13	45000	17.7	0
13	45000	17.8	0
13	45000	17.9	0
13	45000	18	0
13	45000	18.1	0
13	45000	18.2	0
13	45000	18.3	0
13	45000	18.4	0
13	45000	18.5	0
13	45000	18.6	0
13	45000	18.7	0
13	45000	18.8	0
13	45000	18.9	0
13	45000	19	0
13	45000	19.1	0
13	45000	19.2	0
13	45000	19.3	0
13	45000	19.4	0
13	45000	19.5	0
13	45000	19.6	0
13	45000	19.7	0
13	45000	19.8	0
13	45000	19.9	0
13	45000	20	0
13	45000	20.1	0
13	45000	20.2	0
13	45000	20.3	0
13	45000	20.4	0
13	45000	20.5	0
13	45000	20.6	0
13	45000	20.7	0
13	45000	20.8	0
13	45000	20.9	0
13	45000	21	0
13	45000	21.1	0
13	45000	21.2	0
13	45000	21.3	0
13	45000	21.4	0
13	45000	21.5	0
13	45000	21.6	0
13	45000	21.7	0
13	45000	21.8	0
13	45000	21.9	0
13	45000	22	0
13	45000	22.1	0
13	45000	22.2	0
13	45000	22.3	0
13	45000	22.4	0
13	45000	22.5	0
13	45000	22.6	0
13	45000	22.7	0
13	45000	22.8	0
13	45000	22.9	0
13	45000	23	0
13	45000	23.1	0
13	45000	23.2	0
13	45000	23.3	0
13	45000	23.4	0
13	45000	23.5	0
13	45000	23.6	0
13	45000	23.7	0
13	45000	23.8	0
13	45000	23.9	0
13	45000	24	0
13	45000	24.1	0
13	45000	24.2	0
13	45000	24.3	0
13	45000	24.4	0
13	45000	24.5	0
13	45000	24.6	0
13	45000	24.7	0
13	45000	24.8	0
13	45000	24.9	0
13	45000	25	0
13	45000	25.1	0
13	45000	25.2	0
13	45000	25.3	0
13	45000	25.4	0
13	45000	25.5	0
13	45000	25.6	0
13	45000	25.7	0
13	45000	25.8	0
13	45000	25.9	0
13	45000	26	0
13	45000	26.1	0
13	45000	26.2	0
13	45000	26.3	0
13	45000	26.4	0
13	45000	26.5	0
13	45000	26.6	0
13	45000	26.7	0
13	45000	26.8	0
13	45000	26.9	0
13	45000	27	0
13	45000	27.1	0
13	45000	27.2	0
13	45000	27.3	0
13	45000	27.4	0
13	45000	27.5	0
13	45000	27.6	0
13	45000	27.7	0
13	45000	27.8	0
13	45000	27.9	0
13	45000	28	0
13	45000	28.1	0
13	45000	28.2	0
13	45000	28.3	0
13	45000	28.4	0
13	45000	28.5	0
13	45000	28.6	0
13	45000	28.7	0
13	45000	28.8	0
13	45000	28.9	0
13	45000	29	0
13	45000	29.1	0
13	45000	29.2	0
13	45000	29.3	0
13	45000	29.4	0
13	45000	29.5	0
13	45000	29.6	0
13	45000	29.7	0
13	45000	29.8	0
13	45000	29.9	0
13	45000	30	0
13	45000	30.1	0
13	45000	30.2	0
13	45000	30.3	0
13	45000	30.4	0
13	45000	30.5	0
13	45000	30.6	0
13	45000	30.7	0
13	45000	30.8	0
13	45000	30.9	0
13	45000	31	0
13	45000	31.1	0
13	45000	31.2	0
13	45000	31.3	0
13	45000	31.4	0
13	45000	31.5	0
13	45000	31.6	0
13	45000	31.7	0
13	45000	31.8	0
13	45000	31.9	0
13	45000	32	0
13	45000	32.1	0
13	45000	32.2	0
13	45000	32.3	0
13	45000	32.4	0
13	45000	32.5	0
13	45000	32.6	0
13	45000	32.7	0
13	45000	32.8	0
13	45000	32.9	0
13	45000	33	0
13	45000	33.1	0
13	45000	33.2	0
13	45000	33.3	0
13	45000	33.4	0
13	45000	33.5	0
13	45000	33.6	0
13	45000	33.7	0
13	45000	33.8	0
13	45000	33.9	0
13	45000	34	0
13	45000	34.1	0
13	45000	34.2	0
13	45000	34.3	0
13	45000	34.4	0
13	45000	34.5	0
13	45000	34.6	0
13	45000	34.7	0
13	45000	34.8	0
13	45000	34.9	0
13	45000	35	0
13	45000	35.1	0
13	45000	35.2	0
13	45000	35.3	0
13	45000	35.4	0
13	45000	35.5	0
13	45000	35.6	0
13	45000	35.7	0
13	45000	35.8	0
13	45000	35.9	0
13	45000	36	0
13	45000	36.1	0
13	45000	36.2	0
13	45000	36.3	0
13	45000	36.4	0
13	45000	36.5	0
13	45000	36.6	0
13	45000	36.7	0
13	45000	36.8	0
13	45000	36.9	0
13	45000	37	0
13	45000	37.1	0
13	45000	37.2	0
13	45000	37.3	0
13	45000	37.4	0
13	45000	37.5	0
13	45000	37.6	0
13	45000	37.7	0
13	45000	37.8	0
13	45000	37.9	0
13	45000	38	0
13	45000	38.1	0
13	45000	38.2	0
13	45000	38.3	0
13	45000	38.4	0
13	45000	38.5	0
13	45000	38.6	0
13	45000	38.7	0
13	45000	38.8	0
13	45000	38.9	0
13	45000	39	0
13	45000	39.1	0
13	45000	39.2	0
13	45000	39.3	0
13	45000	39.4	0
13	45000	39.5	0
13	45000	39.6	0
13	45000	39.7	0
13	45000	39.8	0
13	45000	39.9	0
13	45000	40	0
13	45000	40.1	0
13	45000	40.2	0
13	45000	40.3	0
13	45000	40.4	0
13	45000	40.5	0
13	45000	40.6	0
13	45000	40.7	0
13	45000	40.8	0
13	45000	40.9	0
13	45000	41	0
13	45000	41.1	0
13	45000	41.2	0
13	45000	41.3	0
13	45000	41.4	0
13	45000	41.5	0
13	45000	41.6	0
13	45000	41.7	0
13	45000	41.8	0
13	45000	41.9	0
13	45000	42	0
13	45000	42.1	0
13	45000	42.2	0
13	45000	42.3	0
13	45000	42.4	0
13	45000	42.5	0
13	45000	42.6	0
13	45000	42.7	0
13	45000	42.8	0
13	45000	42.9	0
13	45000	43	0
13	45000	43.1	0
13	45000	43.2	0
13	45000	43.3	0
13	45000	43.4	0
13	45000	43.5	0
13	45000	43.6	0
13	45000	43.7	0
13	45000	43.8	0
13	45000	43.9	0
13	45000	44	0
13	45000	44.1	0
13	45000	44.2	0
13	45000	44.3	0
13	45000	44.4	0
13	45000	44.5	0
13	45000	44.6	0
13	45000	44.7	0
13	45000	44.8	0
13	45000	44.9	0
13	45000	45	0
13	45000	45.1	0
13	45000	45.2	0
13	45000	45.3	0
13	45000	45.4	0
13	45000	45.5	0
13	45000	45.6	0
13	45000	45.7	0
13	45000	45.8	0
13	45000	45.9	0
13	45000	46	0
13	45000	46.1	0
13	45000	46.2	0
13	45000	46.3	0
13	45000	46.4	0
13	45000	46.5	0
13	45000	46.6	0
13	45000	46.7	0
13	45000	46.8	0
13	45000	46.9	0
13	45000	47	0
13	45000	47.1	0
13	45000	47.2	0
13	45000	47.3	0
13	45000	47.4	0
13	45000	47.5	0
13	45000	47.6	0
13	45000	47.7	0
13	45000	47.8	0
13	45000	47.9	0
13	45000	48	0
13	45000	48.1	0
13	45000	48.2	0
13	45000	48.3	0
13	45000	48.4	0
13	45000	48.5	0
13	45000	48.6	0
13	45000	48.7	0
13	45000	48.8	0
13	45000	48.9	0
13	45000	49	0
13	45000	49.1	0
13	45000	49.2	0
13	45000	49.3	0
13	45000	49.4	0
13	45000	49.5	0
13	45000	49.6	0
13	45000	49.7	0
13	45000	49.8	0
13	45000	49.9	0
13	45000	50	0
13	45000	50.1	0
13	45000	50.2	0
13	45000	50.3	0
13	45000	50.4	0
13	45000	50.5	0
13	45000	50.6	0
13	45000	50.7	0
13	45000	50.8	0
13	45000	50.9	0
13	45000	51	0
13	45000	51.1	0
13	45000	51.2	0
13	45000	51.3	0
13	45000	51.4	0
13	45000	51.5	0
13	45000	51.6	0
13	45000	51.7	0
13	45000	51.8	0
13	45000	51.9	0
13	45000	52	0
13	45000	52.1	0
13	45000	52.2	0
13	45000	52.3	0
13	45000	52.4	0
13	45000	52.5	0
13	45000	52.6	0
13	45000	52.7	0
13	45000	52.8	0
13	45000	52.9	0
13	45000	53	0
13	45000	53.1	0
13	45000	53.2	0
13	45000	53.3	0
13	45000	53.4	0
13	45000	53.5	0
13	45000	53.6	0
13	45000	53.7	0
13	45000	53.8	0
13	45000	53.9	0
13	45000	54	0
13	45000	54.1	0
13	45000	54.2	0
13	45000	54.3	0
13	45000	54.4	0
13	45000	54.5	0
13	45000	54.6	0
13	45000	54.7	0
13	45000	54.8	0
13	45000	54.9	0
13	45000	55	0
13	45000	55.1	0
13	45000	55.2	0
13	45000	55.3	0
13	45000	55.4	0
13	45000	55.5	0
13	45000	55.6	0
13	45000	55.7	0
13	45000	55.8	0
13	45000	55.9	0
13	45000	56	0
13	45000	56.1	0
13	45000	56.2	0
13	45000	56.3	0
13	45000	56.4	0
13	45000	56.5	0
13	45000	56.6	0
13	45000	56.7	0
13	45000	56.8	0
13	45000	56.9	0
13	45000	57	0
13	45000	57.1	0
13	45000	57.2	0
13	45000	57.3	0
13	45000	57.4	0
13	45000	57.5	0
13	45000	57.6	0
13	45000	57.7	0
13	45000	57.8	0
13	45000	57.9	0
13	45000	58	0
13	45000	58.1	0
13	45000	58.2	0
13	45000	58.3	0
13	45000	58.4	0
13	45000	58.5	0
13	45000	58.6	0
13	45000	58.7	0
13	45000	58.8	0
13	45000	58.9	0
13	45000	59	0
13	45000	59.1	0
13	45000	59.2	0
13	45000	59.3	0
13	45000	59.4	0
13	45000	59.5	0
13	45000	59.6	0
13	45000	59.7	0
13	45000	59.8	0
13	45000	59.9	0
13	45000	60	0
13	45000	60.1	0
13	45000	60.2	0
13	45000	60.3	0
13	45000	60.4	0
13	45000	60.5	0
13	45000	60.6	0
13	45000	60.7	0
13	45000	60.8	0
13	45000	60.9	0
13	45000	61	0
13	45000	61.1	0
13	45000	61.2	0
13	45000	61.3	0
13	45000	61.4	0
13	45000	61.5	0
13	45000	61.6	0
13	45000	61.7	0
13	45000	61.8	0
13	45000	61.9	0
13	45000	62	0
13	45000	62.1	0
13	45000	62.2	0
13	45000	62.3	0
13	45000	62.4	0
13	45000	62.5	0
13	45000	62.6	0
13	45000	62.7	0
13	45000	62.8	0
13	45000	62.9	0
13	45000	63	0
13	45000	63.1	0
13	45000	63.2	0
13	45000	63.3	0
13	45000	63.4	0
13	45000	63.5	0
13	45000	63.6	0
13	45000	63.7	0
13	45000	63.8	0
13	45000	63.9	0
13	45000	64	0
13	45000	64.1	0
13	45000	64.2	0
13	45000	64.3	0
13	45000	64.4	0
13	45000	64.5	0
13	45000	64.6	0
13	45000	64.7	0
13	45000	64.8	0
13	45000	64.9	0
13	45000	65	0
13	45000	65.1	0
13	45000	65.2	0
13	45000	65.3	0
13	45000	65.4	0
13	45000	65.5	0
13	45000	65.6	0
13	45000	65.7	0
13	45000	65.8	0
13	45000	65.9	0
13	45000	66	0
13	45000	66.1	0
13	45000	66.2	0
13	45000	66.3	0
13	45000	66.4	0
13	45000	66.5	0
13	45000	66.6	0
13	45000	66.7	0
13	45000	66.8	0
13	45000	66.9	0
13	45000	67	0
13	45000	67.1	0
13	45000	67.2	0
13	45000	67.3	0
13	45000	67.4	0
13	45000	67.5	0
13	45000	67.6	0
13	45000	67.7	0
13	45000	67.8	0
13	45000	67.9	0
13	45000	68	0
13	45000	68.1	0
13	45000	68.2	0
13	45000	68.3	0
13	45000	68.4	0
13	45000	68.5	0
13	45000	68.6	0
13	45000	68.7	0
13	45000	68.8	0
13	45000	68.9	0
13	45000	69	0
13	45000	69.1	0
13	45000	69.2	0
13	45000	69.3	0
13	45000	69.4	0
13	45000	69.5	0
13	45000	69.6	0
13	45000	69.7	0
13	45000	69.8	0
13	45000	69.9	0
13	45000	70	0
13	45000	70.1	0
13	45000	70.2	0
13	45000	70.3	0
13	45000	70.4	0
13	45000	70.5	0
13	45000	70.6	0
13	45000	70.7	0
13	45000	70.8	0
13	45000	70.9	0
13	45000	71	0
13	45000	71.1	0
13	45000	71.2	0
13	45000	71.3	0
13	45000	71.4	0
13	45000	71.5	0
13	45000	71.6	0
13	45000	71.7	0
13	45000	71.8	0
13	45000	71.9	0
13	45000	72	0
13	45000	72.1	0
13	45000	72.2	0
13	45000	72.3	0
13	45000	72.4	0
13	45000	72.5	0
13	45000	72.6	0
13	45000	72.7	0
13	45000	72.8	0
13	45000	72.9	0
13	45000	73	0
13	45000	73.1	0
13	45000	73.2	0
13	45000	73.3	0
13	45000	73.4	0
13	45000	73.5	0
13	45000	73.6	0
13	45000	73.7	0
13	45000	73.8	0
13	45000	73.9	0
13	45000	74	0
13	45000	74.1	0
13	45000	74.2	0
13	45000	74.3	0
13	45000	74.4	0
13	45000	74.5	0
13	45000	74.6	0
13	45000	74.7	0
13	45000	74.8	0
13	45000	74.9	0
13	45000	75	0
13	45000	75.1	0
13	45000	75.2	0
13	45000	75.3	0
13	45000	75.4	0
13	45000	75.5	0
13	45000	75.6	0
13	45000	75.7	0
13	45000	75.8	0
13	45000	75.9	0
13	45000	76	0
13	45000	76.1	0
13	45000	76.2	0
13	45000	76.3	0
13	45000	76.4	0
13	45000	76.5	0
13	45000	76.6	0
13	45000	76.7	0
13	45000	76.8	0
13	45000	76.9	0
13	45000	77	0
13	45000	77.1	0
13	45000	77.2	0
13	45000	77.3	0
13	45000	77.4	0
13	45000	77.5	0
13	45000	77.6	0
13	45000	77.7	0
13	45000	77.8	0
13	45000	77.9	0
13	45000	78	0
13	45000	78.1	0
13	45000	78.2	0
13	45000	78.3	0
13	45000	78.4	0
13	45000	78.5	0
13	45000	78.6	0
13	45000	78.7	0
13	45000	78.8	0
13	45000	78.9	0
13	45000	79	0
13	45000	79.1	0
13	45000	79.2	0
13	45000	79.3	0
13	45000	79.4	0
13	45000	79.5	0
13	45000	79.6	0
13	45000	79.7	0
13	45000	79.8	0
13	45000	79.9	0
13	45000	80	0
13	45000	80.1	0
13	45000	80.2	0
13	45000	80.3	0
13	45000	80.4	0
13	45000	80.5	0
13	45000	80.6	0
13	45000	80.7	0
13	45000	80.8	0
13	45000	80.9	0
13	45000	81	0
13	45000	81.1	0
13	45000	81.2	0
13	45000	81.3	0
13	45000	81.4	0
13	45000	81.5	0
13	45000	81.6	0
13	45000	81.7	0
13	45000	81.8	0
13	45000	81.9	0
13	45000	82	0
13	45000	82.1	0
13	45000	82.2	0
13	45000	82.3	0
13	45000	82.4	0
13	45000	82.5	0
13	45000	82.6	0
13	45000	82.7	0
13	45000	82.8	0
13	45000	82.9	0
13	45000	83	0
13	45000	83.1	0
13	45000	83.2	0
13	45000	83.3	0
13	45000	83.4	0
13	45000	83.5	0
13	45000	83.6	0
13	45000	83.7	0
13	45000	83.8	0
13	45000	83.9	0
13	45000	84	0
13	45000	84.1	0
13	45000	84.2	0
13	45000	84.3	0
13	45000	84.4	0
13	45000	84.5	0
13	45000	84.6	0
13	45000	84.7	0
13	45000	84.8	0
13	45000	84.9	0
13	45000	85	0
13	45000	85.1	0
13	45000	85.2	0
13	45000	85.3	0
13	45000	85.4	0
13	45000	85.5	0
13	45000	85.6	0
13	45000	85.7	0
13	45000	85.8	0
13	45000	85.9	0
13	45000	86	0
13	45000	86.1	0
13	45000	86.2	0
13	45000	86.3	0
13	45000	86.4	0
13	45000	86.5	0
13	45000	86.6	0
13	45000	86.7	0
13	45000	86.8	0
13	45000	86.9	0
13	45000	87	0
13	45000	87.1	0
13	45000	87.2	0
13	45000	87.3	0
13	45000	87.4	0
13	45000	87.5	0
13	45000	87.6	0
13	45000	87.7	0
13	45000	87.8	0
13	45000	87.9	0
13	45000	88	0
13	45000	88.1	0
13	45000	88.2	0
13	45000	88.3	0
13	45000	88.4	0
13	45000	88.5	0
13	45000	88.6	0
13	45000	88.7	0
13	45000	88.8	0
13	45000	88.9	0
13	45000	89	0
13	45000	89.1	0
13	45000	89.2	0
13	45000	89.3	0
13	45000	89.4	0
13	45000	89.5	0
13	45000	89.6	0
13	45000	89.7	0
13	45000	89.8	0
13	45000	89.9	0
13	45000	90	0
13	45000	90.1	0
13	45000	90.2	0
13	45000	90.3	0
13	45000	90.4	0
13	45000	90.5	0
13	45000	90.6	0
13	45000	90.7	0
13	45000	90.8	0
13	45000	90.9	0
13	45000	91	0
13	45000	91.1	0
13	45000	91.2	0
13	45000	91.3	0
13	45000	91.4	0
13	45000	91.5	0
13	45000	91.6	0
13	45000	91.7	0
13	45000	91.8	0
13	45000	91.9	0
13	45000	92	0
13	45000	92.1	0
13	45000	92.2	0
13	45000	92.3	0
13	45000	92.4	0
13	45000	92.5	0
13	45000	92.6	0
13	45000	92.7	0
13	45000	92.8	0
13	45000	92.9	0
13	45000	93	0
13	45000	93.1	0
13	45000	93.2	0
13	45000	93.3	0
13	45000	93.4	0
13	45000	93.5	0
13	45000	93.6	0
13	45000	93.7	0
13	45000	93.8	0
13	45000	93.9	0
13	45000	94	0
13	45000	94.1	0
13	45000	94.2	0
13	45000	94.3	0
13	45000	94.4	0
13	45000	94.5	0
13	45000	94.6	0
13	45000	94.7	0
13	45000	94.8	0
13	45000	94.9	0
13	45000	95	0
13	45000	95.1	0
13	45000	95.2	0
13	45000	95.3	0
13	45000	95.4	0
13	45000	95.5	0
13	45000	95.6	0
13	45000	95.7	0
13	45000	95.8	0
13	45000	95.9	0
13	45000	96	0
13	45000	96.1	0
13	45000	96.2	0
13	45000	96.3	0
13	45000	96.4	0
13	45000	96.5	0
13	45000	96.6	0
13	45000	96.7	0
13	45000	96.8	0
13	45000	96.9	0
13	45000	97	0
13	45000	97.1	0
13	45000	97.2	0
13	45000	97.3	0
13	45000	97.4	0
13	45000	97.5	0
13	45000	97.6	0
13	45000	97.7	0
13	45000	97.8	0
13	45000	97.9	0
13	45000	98	0
13	45000	98.1	0
13	45000	98.2	0
13	45000	98.3	0
13	45000	98.4	0
13	45000	98.5	0
13	45000	98.6	0
13	45000	98.7	0
13	45000	98.8	0
13	45000	98.9	0
13	45000	99	0
13	45000	99.1	0
13	45000	99.2	0
13	45000	99.3	0
13	45000	99.4	0
13	45000	99.5	0
13	45000	99.6	0
13	45000	99.7	0
13	45000	99.8	0
13	45000	99.9	0
13	45000	99.99254756865	0

